/*---------------------------------------------------------------------------*\
| =========                 |                                                 |
| \\      /  F ield         | OpenFOAM: The Open Source CFD Toolbox           |
|  \\    /   O peration     | Version:  3.0.1                                 |
|   \\  /    A nd           | Web:      www.OpenFOAM.org                      |
|    \\/     M anipulation  |                                                 |
\*---------------------------------------------------------------------------*/
Build  : 3.0.1-119cac7e8750
Exec   : NEWTON2D-pab
Date   : Mar 18 2016
Time   : 15:55:42
Host   : "swlap10331"
PID    : 5142
Case   : /home/pbrowne/OpenFOAM/pbrowne-3.0.1/AtmosFOAM-3.0.1/run/MongeAmpere/NEWTON2D-pab
nProcs : 1
sigFpe : Enabling floating point exception trapping (FOAM_SIGFPE).
fileModificationChecking : Monitoring run-time modified files using timeStampMaster
allowSystemOperations : Allowing user-supplied system call operations

// * * * * * * * * * * * * * * * * * * * * * * * * * * * * * * * * * * * * * //
Create time

Create mesh for time = 0

Selecting initial monitorFunction type monitorFunctionSech
Dimension of monitor    = [0 0 0 0 0 0 0]
Dimension of monitorNew = [0 0 0 0 0 0 0]
Dimension of monitorR   = [0 0 0 0 0 0 0]
Iteration = 0 PABe = 1.06196
Time = 1
Diagonal goes from 2 to 4.01068
Sum off diagonal goes from 2 to 4.01068
Non-dominance goes from -4.44089e-16 to 4.44069e-16
GAMG:  Solving for Phi, Initial residual = 1, Final residual = 8.68792e-07, No Iterations 30
Iteration = 1 PABe = 0.787115
Time = 2
Diagonal goes from 2.04738 to 4.16511
Sum off diagonal goes from 2.04738 to 4.16511
Non-dominance goes from -0.000917661 to 0.000701856
GAMG:  Solving for Phi, Initial residual = 0.292829, Final residual = 2.74742e-07, No Iterations 30
Iteration = 2 PABe = 0.599714
Time = 3
Diagonal goes from 2.09025 to 4.29497
Sum off diagonal goes from 2.09025 to 4.29361
Non-dominance goes from -0.000723269 to 0.000695006
GAMG:  Solving for Phi, Initial residual = 0.160891, Final residual = 1.36241e-07, No Iterations 30
Iteration = 3 PABe = 0.381548
Time = 4
Diagonal goes from 2.01261 to 4.41552
Sum off diagonal goes from 2.01181 to 4.41292
Non-dominance goes from -0.000691454 to 0.000767763
GAMG:  Solving for Phi, Initial residual = 0.111865, Final residual = 9.17495e-08, No Iterations 30
Iteration = 4 PABe = 0.282508
Time = 5
Diagonal goes from 1.95845 to 4.52537
Sum off diagonal goes from 1.95771 to 4.52495
Non-dominance goes from -0.000689466 to 0.000816196
GAMG:  Solving for Phi, Initial residual = 0.0818314, Final residual = 6.4738e-08, No Iterations 30
Iteration = 5 PABe = 0.218242
Time = 6
Diagonal goes from 1.9142 to 4.65344
Sum off diagonal goes from 1.91383 to 4.6503
Non-dominance goes from -0.000691988 to 0.00106921
GAMG:  Solving for Phi, Initial residual = 0.0606242, Final residual = 4.3592e-08, No Iterations 30
Iteration = 6 PABe = 0.14826
Time = 7
Diagonal goes from 1.90404 to 4.75154
Sum off diagonal goes from 1.90341 to 4.75003
Non-dominance goes from -0.000688255 to 0.00140798
GAMG:  Solving for Phi, Initial residual = 0.0458747, Final residual = 3.21984e-08, No Iterations 30
Iteration = 7 PABe = 0.104602
Time = 8
Diagonal goes from 1.92467 to 4.74438
Sum off diagonal goes from 1.92411 to 4.74234
Non-dominance goes from -0.000680667 to 0.00143394
GAMG:  Solving for Phi, Initial residual = 0.034788, Final residual = 2.37192e-08, No Iterations 30
Iteration = 8 PABe = 0.0761899
Time = 9
Diagonal goes from 1.91198 to 4.84009
Sum off diagonal goes from 1.91266 to 4.83738
Non-dominance goes from -0.000686115 to 0.00147943
GAMG:  Solving for Phi, Initial residual = 0.0255841, Final residual = 2.45446e-08, No Iterations 29
Iteration = 9 PABe = 0.0537812
Time = 10
Diagonal goes from 1.93636 to 4.90383
Sum off diagonal goes from 1.93586 to 4.90099
Non-dominance goes from -0.000686853 to 0.00147813
GAMG:  Solving for Phi, Initial residual = 0.0180506, Final residual = 1.74014e-08, No Iterations 29
Iteration = 10 PABe = 0.0380817
Time = 11
Diagonal goes from 1.95737 to 4.92081
Sum off diagonal goes from 1.95691 to 4.91808
Non-dominance goes from -0.000687907 to 0.00164392
GAMG:  Solving for Phi, Initial residual = 0.012297, Final residual = 1.19742e-08, No Iterations 29
Iteration = 11 PABe = 0.0313692
Time = 12
Diagonal goes from 1.96284 to 4.91282
Sum off diagonal goes from 1.96234 to 4.91023
Non-dominance goes from -0.000693795 to 0.00181678
GAMG:  Solving for Phi, Initial residual = 0.00783275, Final residual = 6.8052e-09, No Iterations 29
Iteration = 12 PABe = 0.0300453
Time = 13
Diagonal goes from 1.96627 to 4.9048
Sum off diagonal goes from 1.9659 to 4.90235
Non-dominance goes from -0.000695896 to 0.00190909
GAMG:  Solving for Phi, Initial residual = 0.00477158, Final residual = 4.36299e-09, No Iterations 29
Iteration = 13 PABe = 0.0285155
Time = 14
Diagonal goes from 1.97225 to 4.89706
Sum off diagonal goes from 1.9719 to 4.89483
Non-dominance goes from -0.000696881 to 0.00193736
GAMG:  Solving for Phi, Initial residual = 0.00276318, Final residual = 1.83012e-09, No Iterations 30
Iteration = 14 PABe = 0.028263
Time = 15
Diagonal goes from 1.96674 to 4.89545
Sum off diagonal goes from 1.96639 to 4.89321
Non-dominance goes from -0.000699922 to 0.00194829
GAMG:  Solving for Phi, Initial residual = 0.00162628, Final residual = 1.61942e-09, No Iterations 28
Iteration = 15 PABe = 0.0292427
Time = 16
Diagonal goes from 1.96367 to 4.8941
Sum off diagonal goes from 1.96331 to 4.89188
Non-dominance goes from -0.000699927 to 0.00196279
GAMG:  Solving for Phi, Initial residual = 0.000966679, Final residual = 7.80618e-10, No Iterations 29
Iteration = 16 PABe = 0.0286447
Time = 17
Diagonal goes from 1.96762 to 4.89256
Sum off diagonal goes from 1.96727 to 4.89034
Non-dominance goes from -0.00069956 to 0.00196099
GAMG:  Solving for Phi, Initial residual = 0.000544385, Final residual = 4.0385e-10, No Iterations 30
Iteration = 17 PABe = 0.0285234
Time = 18
Diagonal goes from 1.96362 to 4.89227
Sum off diagonal goes from 1.96327 to 4.89004
Non-dominance goes from -0.000701035 to 0.00196012
GAMG:  Solving for Phi, Initial residual = 0.000408616, Final residual = 3.42144e-10, No Iterations 24
Iteration = 18 PABe = 0.0292278
Time = 19
Diagonal goes from 1.96191 to 4.89209
Sum off diagonal goes from 1.96156 to 4.88987
Non-dominance goes from -0.00070053 to 0.00196674
GAMG:  Solving for Phi, Initial residual = 0.000289196, Final residual = 2.24689e-10, No Iterations 28
Iteration = 19 PABe = 0.0287406
Time = 20
Diagonal goes from 1.96528 to 4.89152
Sum off diagonal goes from 1.96493 to 4.8893
Non-dominance goes from -0.000700081 to 0.00196323
GAMG:  Solving for Phi, Initial residual = 0.00019424, Final residual = 1.40469e-10, No Iterations 30
Iteration = 20 PABe = 0.028652
Time = 21
Diagonal goes from 1.96247 to 4.89167
Sum off diagonal goes from 1.96212 to 4.88945
Non-dominance goes from -0.000701069 to 0.00196195
GAMG:  Solving for Phi, Initial residual = 0.000185886, Final residual = 1.59944e-10, No Iterations 29
Iteration = 21 PABe = 0.0291556
Time = 22
Diagonal goes from 1.96158 to 4.89171
Sum off diagonal goes from 1.96123 to 4.8895
Non-dominance goes from -0.000700587 to 0.00196644
GAMG:  Solving for Phi, Initial residual = 0.000172871, Final residual = 1.26441e-10, No Iterations 27
Iteration = 22 PABe = 0.0287676
Time = 23
Diagonal goes from 1.96424 to 4.8914
Sum off diagonal goes from 1.96389 to 4.88918
Non-dominance goes from -0.000700259 to 0.00196344
GAMG:  Solving for Phi, Initial residual = 0.000135824, Final residual = 1.21843e-10, No Iterations 29
Iteration = 23 PABe = 0.0287194
Time = 24
Diagonal goes from 1.96216 to 4.89158
Sum off diagonal goes from 1.96181 to 4.88936
Non-dominance goes from -0.000700983 to 0.0019626
GAMG:  Solving for Phi, Initial residual = 0.000123631, Final residual = 9.09606e-11, No Iterations 30
Iteration = 24 PABe = 0.0290859
Time = 25
Diagonal goes from 1.9617 to 4.89163
Sum off diagonal goes from 1.96134 to 4.88941
Non-dominance goes from -0.000700585 to 0.00196588
GAMG:  Solving for Phi, Initial residual = 0.000128363, Final residual = 9.15547e-11, No Iterations 27
Iteration = 25 PABe = 0.0287826
Time = 26
Diagonal goes from 1.96371 to 4.89141
Sum off diagonal goes from 1.96335 to 4.8892
Non-dominance goes from -0.000700364 to 0.0019635
GAMG:  Solving for Phi, Initial residual = 0.00010197, Final residual = 8.26137e-11, No Iterations 29
Iteration = 26 PABe = 0.0287634
Time = 27
Diagonal goes from 1.96211 to 4.89157
Sum off diagonal goes from 1.96176 to 4.88934
Non-dominance goes from -0.000700902 to 0.00196301
GAMG:  Solving for Phi, Initial residual = 9.13835e-05, Final residual = 7.0425e-11, No Iterations 30
Iteration = 27 PABe = 0.0290307
Time = 28
Diagonal goes from 1.96189 to 4.8916
Sum off diagonal goes from 1.96153 to 4.88938
Non-dominance goes from -0.000700581 to 0.00196543
GAMG:  Solving for Phi, Initial residual = 9.58161e-05, Final residual = 7.86966e-11, No Iterations 27
Iteration = 28 PABe = 0.0287953
Time = 29
Diagonal goes from 1.96337 to 4.89144
Sum off diagonal goes from 1.96302 to 4.88922
Non-dominance goes from -0.000700438 to 0.00196357
GAMG:  Solving for Phi, Initial residual = 7.68881e-05, Final residual = 5.7879e-11, No Iterations 29
Iteration = 29 PABe = 0.0287943
Time = 30
Diagonal goes from 1.96214 to 4.89156
Sum off diagonal goes from 1.96179 to 4.88934
Non-dominance goes from -0.000700837 to 0.00196331
GAMG:  Solving for Phi, Initial residual = 6.79947e-05, Final residual = 5.34707e-11, No Iterations 30
Iteration = 30 PABe = 0.0289888
Time = 31
Diagonal goes from 1.96205 to 4.89158
Sum off diagonal goes from 1.9617 to 4.88936
Non-dominance goes from -0.000700582 to 0.00196509
GAMG:  Solving for Phi, Initial residual = 7.17907e-05, Final residual = 6.78358e-11, No Iterations 27
Iteration = 31 PABe = 0.0288067
Time = 32
Diagonal goes from 1.96314 to 4.89146
Sum off diagonal goes from 1.96279 to 4.88924
Non-dominance goes from -0.000700492 to 0.00196363
GAMG:  Solving for Phi, Initial residual = 5.7943e-05, Final residual = 4.04969e-11, No Iterations 29
Iteration = 32 PABe = 0.0288161
Time = 33
Diagonal goes from 1.96219 to 4.89156
Sum off diagonal goes from 1.96183 to 4.88934
Non-dominance goes from -0.000700787 to 0.00196353
GAMG:  Solving for Phi, Initial residual = 5.0579e-05, Final residual = 4.03971e-11, No Iterations 30
Iteration = 33 PABe = 0.0289571
Time = 34
Diagonal goes from 1.96218 to 4.89156
Sum off diagonal goes from 1.96182 to 4.88935
Non-dominance goes from -0.000700585 to 0.00196483
GAMG:  Solving for Phi, Initial residual = 5.37207e-05, Final residual = 3.75729e-11, No Iterations 28
Iteration = 34 PABe = 0.0288169
Time = 35
Diagonal goes from 1.96297 to 4.89148
Sum off diagonal goes from 1.96262 to 4.88926
Non-dominance goes from -0.00070053 to 0.0019637
GAMG:  Solving for Phi, Initial residual = 4.38044e-05, Final residual = 4.30293e-11, No Iterations 28
Iteration = 35 PABe = 0.0288316
Time = 36
Diagonal goes from 1.96223 to 4.89155
Sum off diagonal goes from 1.96188 to 4.88933
Non-dominance goes from -0.000700748 to 0.00196369
GAMG:  Solving for Phi, Initial residual = 3.77094e-05, Final residual = 3.04287e-11, No Iterations 30
Iteration = 36 PABe = 0.0289333
Time = 37
Diagonal goes from 1.96227 to 4.89155
Sum off diagonal goes from 1.96191 to 4.88934
Non-dominance goes from -0.000700589 to 0.00196463
GAMG:  Solving for Phi, Initial residual = 4.02965e-05, Final residual = 3.13283e-11, No Iterations 28
Iteration = 37 PABe = 0.0288256
Time = 38
Diagonal goes from 1.96285 to 4.89149
Sum off diagonal goes from 1.96249 to 4.88927
Non-dominance goes from -0.000700558 to 0.00196375
GAMG:  Solving for Phi, Initial residual = 3.30727e-05, Final residual = 2.95724e-11, No Iterations 28
Iteration = 38 PABe = 0.0288423
Time = 39
Diagonal goes from 1.96228 to 4.89155
Sum off diagonal goes from 1.96192 to 4.88933
Non-dominance goes from -0.000700719 to 0.0019638
GAMG:  Solving for Phi, Initial residual = 2.80918e-05, Final residual = 2.28546e-11, No Iterations 30
Iteration = 39 PABe = 0.0289154
Time = 40
Diagonal goes from 1.96233 to 4.89155
Sum off diagonal goes from 1.96198 to 4.88933
Non-dominance goes from -0.000700594 to 0.00196448
GAMG:  Solving for Phi, Initial residual = 3.01728e-05, Final residual = 2.57907e-11, No Iterations 28
Iteration = 40 PABe = 0.028833
Time = 41
Diagonal goes from 1.96275 to 4.8915
Sum off diagonal goes from 1.9624 to 4.88928
Non-dominance goes from -0.000700578 to 0.00196381
GAMG:  Solving for Phi, Initial residual = 2.49915e-05, Final residual = 2.00847e-11, No Iterations 28
Iteration = 41 PABe = 0.0288498
Time = 42
Diagonal goes from 1.96231 to 4.89155
Sum off diagonal goes from 1.96196 to 4.88933
Non-dominance goes from -0.000700696 to 0.00196387
GAMG:  Solving for Phi, Initial residual = 2.08979e-05, Final residual = 1.71157e-11, No Iterations 30
Iteration = 42 PABe = 0.028902
Time = 43
Diagonal goes from 1.96238 to 4.89154
Sum off diagonal goes from 1.96202 to 4.88932
Non-dominance goes from -0.000700598 to 0.00196437
GAMG:  Solving for Phi, Initial residual = 2.25568e-05, Final residual = 2.10097e-11, No Iterations 28
Iteration = 43 PABe = 0.0288391
Time = 44
Diagonal goes from 1.96268 to 4.89151
Sum off diagonal goes from 1.96232 to 4.88929
Non-dominance goes from -0.000700593 to 0.00196385
GAMG:  Solving for Phi, Initial residual = 1.90072e-05, Final residual = 1.34458e-11, No Iterations 28
Iteration = 44 PABe = 0.0288549
Time = 45
Diagonal goes from 1.96234 to 4.89154
Sum off diagonal goes from 1.96199 to 4.88932
Non-dominance goes from -0.000700679 to 0.00196393
GAMG:  Solving for Phi, Initial residual = 1.55627e-05, Final residual = 1.27798e-11, No Iterations 30
Iteration = 45 PABe = 0.028892
Time = 46
Diagonal goes from 1.96241 to 4.89154
Sum off diagonal goes from 1.96206 to 4.88932
Non-dominance goes from -0.000700603 to 0.00196428
GAMG:  Solving for Phi, Initial residual = 1.68386e-05, Final residual = 1.10897e-11, No Iterations 29
Iteration = 46 PABe = 0.0288442
Time = 47
Diagonal goes from 1.96262 to 4.89151
Sum off diagonal goes from 1.96227 to 4.8893
Non-dominance goes from -0.000700603 to 0.00196388
GAMG:  Solving for Phi, Initial residual = 1.44736e-05, Final residual = 1.35332e-11, No Iterations 27
Iteration = 47 PABe = 0.0288583
Time = 48
Diagonal goes from 1.96237 to 4.89154
Sum off diagonal goes from 1.96201 to 4.88932
Non-dominance goes from -0.000700666 to 0.00196396
GAMG:  Solving for Phi, Initial residual = 1.16278e-05, Final residual = 9.51372e-12, No Iterations 30
Iteration = 48 PABe = 0.0288845
Time = 49
Diagonal goes from 1.96243 to 4.89154
Sum off diagonal goes from 1.96208 to 4.88932
Non-dominance goes from -0.000700607 to 0.00196422
GAMG:  Solving for Phi, Initial residual = 1.25791e-05, Final residual = 8.88509e-12, No Iterations 29
Iteration = 49 PABe = 0.0288482
Time = 50
Diagonal goes from 1.96258 to 4.89152
Sum off diagonal goes from 1.96223 to 4.8893
Non-dominance goes from -0.00070061 to 0.00196391
GAMG:  Solving for Phi, Initial residual = 1.09982e-05, Final residual = 8.69008e-12, No Iterations 27
Iteration = 50 PABe = 0.0288606
Time = 51
Diagonal goes from 1.96239 to 4.89154
Sum off diagonal goes from 1.96203 to 4.88932
Non-dominance goes from -0.000700656 to 0.00196399
GAMG:  Solving for Phi, Initial residual = 8.71253e-06, Final residual = 7.06091e-12, No Iterations 30
Iteration = 51 PABe = 0.028879
Time = 52
Diagonal goes from 1.96244 to 4.89153
Sum off diagonal goes from 1.96209 to 4.88932
Non-dominance goes from -0.00070061 to 0.00196417
GAMG:  Solving for Phi, Initial residual = 9.3894e-06, Final residual = 7.07091e-12, No Iterations 29
Iteration = 52 PABe = 0.0288515
Time = 53
Diagonal goes from 1.96255 to 4.89152
Sum off diagonal goes from 1.9622 to 4.8893
Non-dominance goes from -0.000700615 to 0.00196394
GAMG:  Solving for Phi, Initial residual = 8.34976e-06, Final residual = 8.27184e-12, No Iterations 26
Iteration = 53 PABe = 0.028862
Time = 54
Diagonal goes from 1.9624 to 4.89154
Sum off diagonal goes from 1.96205 to 4.88932
Non-dominance goes from -0.000700648 to 0.00196401
GAMG:  Solving for Phi, Initial residual = 6.53387e-06, Final residual = 5.22409e-12, No Iterations 30
Iteration = 54 PABe = 0.0288748
Time = 55
Diagonal goes from 1.96245 to 4.89153
Sum off diagonal goes from 1.9621 to 4.88931
Non-dominance goes from -0.000700613 to 0.00196413
GAMG:  Solving for Phi, Initial residual = 6.99983e-06, Final residual = 5.59352e-12, No Iterations 29
Iteration = 55 PABe = 0.0288542
Time = 56
Diagonal goes from 1.96253 to 4.89152
Sum off diagonal goes from 1.96218 to 4.88931
Non-dominance goes from -0.000700619 to 0.00196396
GAMG:  Solving for Phi, Initial residual = 6.33112e-06, Final residual = 4.9038e-12, No Iterations 26
Iteration = 56 PABe = 0.028863
Time = 57
Diagonal goes from 1.96242 to 4.89154
Sum off diagonal goes from 1.96206 to 4.88932
Non-dominance goes from -0.000700642 to 0.00196402
GAMG:  Solving for Phi, Initial residual = 4.91549e-06, Final residual = 3.85271e-12, No Iterations 30
Iteration = 57 PABe = 0.0288718
Time = 58
Diagonal goes from 1.96246 to 4.89153
Sum off diagonal goes from 1.96211 to 4.88931
Non-dominance goes from -0.000700616 to 0.00196411
GAMG:  Solving for Phi, Initial residual = 5.21021e-06, Final residual = 4.40098e-12, No Iterations 29
Iteration = 58 PABe = 0.0288562
Time = 59
Diagonal goes from 1.96251 to 4.89153
Sum off diagonal goes from 1.96216 to 4.88931
Non-dominance goes from -0.000700621 to 0.00196397
GAMG:  Solving for Phi, Initial residual = 4.79429e-06, Final residual = 4.12522e-12, No Iterations 25
Iteration = 59 PABe = 0.0288635
Time = 60
Diagonal goes from 1.96243 to 4.89153
Sum off diagonal goes from 1.96208 to 4.88932
Non-dominance goes from -0.000700638 to 0.00196402
GAMG:  Solving for Phi, Initial residual = 3.70778e-06, Final residual = 2.83182e-12, No Iterations 30
Iteration = 60 PABe = 0.0288695
Time = 61
Diagonal goes from 1.96246 to 4.89153
Sum off diagonal goes from 1.96211 to 4.88931
Non-dominance goes from -0.000700618 to 0.00196409
GAMG:  Solving for Phi, Initial residual = 3.8756e-06, Final residual = 3.44561e-12, No Iterations 29
Iteration = 61 PABe = 0.0288579
Time = 62
Diagonal goes from 1.9625 to 4.89153
Sum off diagonal goes from 1.96215 to 4.88931
Non-dominance goes from -0.000700623 to 0.00196399
GAMG:  Solving for Phi, Initial residual = 3.62854e-06, Final residual = 2.99752e-12, No Iterations 24
Iteration = 62 PABe = 0.0288638
Time = 63
Diagonal goes from 1.96244 to 4.89153
Sum off diagonal goes from 1.96208 to 4.88932
Non-dominance goes from -0.000700635 to 0.00196403
GAMG:  Solving for Phi, Initial residual = 2.80405e-06, Final residual = 2.07417e-12, No Iterations 30
Iteration = 63 PABe = 0.0288679
Time = 64
Diagonal goes from 1.96247 to 4.89153
Sum off diagonal goes from 1.96211 to 4.88931
Non-dominance goes from -0.000700619 to 0.00196407
GAMG:  Solving for Phi, Initial residual = 2.8753e-06, Final residual = 2.68538e-12, No Iterations 29
Iteration = 64 PABe = 0.0288592
Time = 65
Diagonal goes from 1.96249 to 4.89153
Sum off diagonal goes from 1.96214 to 4.88931
Non-dominance goes from -0.000700624 to 0.001964
GAMG:  Solving for Phi, Initial residual = 2.74419e-06, Final residual = 2.24261e-12, No Iterations 22
Iteration = 65 PABe = 0.028864
Time = 66
Diagonal goes from 1.96244 to 4.89153
Sum off diagonal goes from 1.96209 to 4.88931
Non-dominance goes from -0.000700632 to 0.00196403
GAMG:  Solving for Phi, Initial residual = 2.12419e-06, Final residual = 1.51369e-12, No Iterations 30
Iteration = 66 PABe = 0.0288667
Time = 67
Diagonal goes from 1.96247 to 4.89153
Sum off diagonal goes from 1.96211 to 4.88931
Non-dominance goes from -0.000700621 to 0.00196406
GAMG:  Solving for Phi, Initial residual = 2.13163e-06, Final residual = 2.08422e-12, No Iterations 29
Iteration = 67 PABe = 0.0288602
Time = 68
Diagonal goes from 1.96248 to 4.89153
Sum off diagonal goes from 1.96213 to 4.88931
Non-dominance goes from -0.000700625 to 0.00196401
GAMG:  Solving for Phi, Initial residual = 2.07304e-06, Final residual = 1.67986e-12, No Iterations 21
Iteration = 68 PABe = 0.028864
Time = 69
Diagonal goes from 1.96245 to 4.89153
Sum off diagonal goes from 1.9621 to 4.88931
Non-dominance goes from -0.000700631 to 0.00196403
GAMG:  Solving for Phi, Initial residual = 1.60811e-06, Final residual = 1.10066e-12, No Iterations 30
Iteration = 69 PABe = 0.0288658
Time = 70
Diagonal goes from 1.96247 to 4.89153
Sum off diagonal goes from 1.96212 to 4.88931
Non-dominance goes from -0.000700622 to 0.00196405
GAMG:  Solving for Phi, Initial residual = 1.57769e-06, Final residual = 1.05326e-12, No Iterations 30
Iteration = 70 PABe = 0.028861
Time = 71
Diagonal goes from 1.96248 to 4.89153
Sum off diagonal goes from 1.96213 to 4.88931
Non-dominance goes from -0.000700625 to 0.00196401
GAMG:  Solving for Phi, Initial residual = 1.56197e-06, Final residual = 1.5183e-12, No Iterations 23
Iteration = 71 PABe = 0.028864
Time = 72
Diagonal goes from 1.96245 to 4.89153
Sum off diagonal goes from 1.9621 to 4.88931
Non-dominance goes from -0.000700629 to 0.00196403
GAMG:  Solving for Phi, Initial residual = 1.21714e-06, Final residual = 7.96681e-13, No Iterations 30
Iteration = 72 PABe = 0.0288651
Time = 73
Diagonal goes from 1.96247 to 4.89153
Sum off diagonal goes from 1.96212 to 4.88931
Non-dominance goes from -0.000700623 to 0.00196405
GAMG:  Solving for Phi, Initial residual = 1.16781e-06, Final residual = 8.11074e-13, No Iterations 30
Iteration = 73 PABe = 0.0288616
Time = 74
Diagonal goes from 1.96248 to 4.89153
Sum off diagonal goes from 1.96212 to 4.88931
Non-dominance goes from -0.000700625 to 0.00196402
GAMG:  Solving for Phi, Initial residual = 1.17696e-06, Final residual = 8.52223e-13, No Iterations 25
Iteration = 74 PABe = 0.028864
Time = 75
Diagonal goes from 1.96246 to 4.89153
Sum off diagonal goes from 1.9621 to 4.88931
Non-dominance goes from -0.000700628 to 0.00196403
GAMG:  Solving for Phi, Initial residual = 9.20997e-07, Final residual = 8.78728e-13, No Iterations 29
Iteration = 75 PABe = 0.0288647
Time = 76
Diagonal goes from 1.96247 to 4.89153
Sum off diagonal goes from 1.96212 to 4.88931
Non-dominance goes from -0.000700623 to 0.00196404
GAMG:  Solving for Phi, Initial residual = 8.65317e-07, Final residual = 9.52516e-13, No Iterations 29
Iteration = 76 PABe = 0.028862
Time = 77
Diagonal goes from 1.96247 to 4.89153
Sum off diagonal goes from 1.96212 to 4.88931
Non-dominance goes from -0.000700626 to 0.00196402
GAMG:  Solving for Phi, Initial residual = 8.85764e-07, Final residual = 9.11116e-13, No Iterations 25
Iteration = 77 PABe = 0.028864
Time = 78
Diagonal goes from 1.96246 to 4.89153
Sum off diagonal goes from 1.96211 to 4.88931
Non-dominance goes from -0.000700628 to 0.00196403
GAMG:  Solving for Phi, Initial residual = 6.96132e-07, Final residual = 9.64926e-13, No Iterations 28
Iteration = 78 PABe = 0.0288643
Time = 79
Diagonal goes from 1.96247 to 4.89153
Sum off diagonal goes from 1.96212 to 4.88931
Non-dominance goes from -0.000700624 to 0.00196404
GAMG:  Solving for Phi, Initial residual = 6.44174e-07, Final residual = 7.2861e-13, No Iterations 29
Iteration = 79 PABe = 0.0288624
Time = 80
Diagonal goes from 1.96247 to 4.89153
Sum off diagonal goes from 1.96212 to 4.88931
Non-dominance goes from -0.000700626 to 0.00196402
GAMG:  Solving for Phi, Initial residual = 6.66012e-07, Final residual = 8.86085e-13, No Iterations 25
Iteration = 80 PABe = 0.0288639
Time = 81
Diagonal goes from 1.96246 to 4.89153
Sum off diagonal goes from 1.96211 to 4.88931
Non-dominance goes from -0.000700627 to 0.00196403
GAMG:  Solving for Phi, Initial residual = 5.26099e-07, Final residual = 6.88712e-13, No Iterations 28
Iteration = 81 PABe = 0.0288641
Time = 82
Diagonal goes from 1.96247 to 4.89153
Sum off diagonal goes from 1.96212 to 4.88931
Non-dominance goes from -0.000700624 to 0.00196404
GAMG:  Solving for Phi, Initial residual = 4.79651e-07, Final residual = 8.49878e-13, No Iterations 28
Iteration = 82 PABe = 0.0288627
Time = 83
Diagonal goes from 1.96247 to 4.89153
Sum off diagonal goes from 1.96212 to 4.88931
Non-dominance goes from -0.000700626 to 0.00196403
GAMG:  Solving for Phi, Initial residual = 4.9942e-07, Final residual = 8.14784e-13, No Iterations 25
Iteration = 83 PABe = 0.0288638
Time = 84
Diagonal goes from 1.96246 to 4.89153
Sum off diagonal goes from 1.96211 to 4.88931
Non-dominance goes from -0.000700627 to 0.00196403
GAMG:  Solving for Phi, Initial residual = 3.97826e-07, Final residual = 7.47952e-13, No Iterations 27
Iteration = 84 PABe = 0.0288639
Time = 85
Diagonal goes from 1.96247 to 4.89153
Sum off diagonal goes from 1.96211 to 4.88931
Non-dominance goes from -0.000700624 to 0.00196404
GAMG:  Solving for Phi, Initial residual = 3.5726e-07, Final residual = 9.88395e-13, No Iterations 27
Iteration = 85 PABe = 0.0288629
Time = 86
Diagonal goes from 1.96247 to 4.89153
Sum off diagonal goes from 1.96212 to 4.88931
Non-dominance goes from -0.000700626 to 0.00196403
GAMG:  Solving for Phi, Initial residual = 3.73665e-07, Final residual = 7.22312e-13, No Iterations 25
Iteration = 86 PABe = 0.0288638
Time = 87
Diagonal goes from 1.96246 to 4.89153
Sum off diagonal goes from 1.96211 to 4.88931
Non-dominance goes from -0.000700626 to 0.00196403
GAMG:  Solving for Phi, Initial residual = 3.00282e-07, Final residual = 8.06884e-13, No Iterations 26
Iteration = 87 PABe = 0.0288638
Time = 88
Diagonal goes from 1.96247 to 4.89153
Sum off diagonal goes from 1.96211 to 4.88931
Non-dominance goes from -0.000700625 to 0.00196404
GAMG:  Solving for Phi, Initial residual = 2.65589e-07, Final residual = 7.48996e-13, No Iterations 27
Iteration = 88 PABe = 0.028863
Time = 89
Diagonal goes from 1.96247 to 4.89153
Sum off diagonal goes from 1.96211 to 4.88931
Non-dominance goes from -0.000700626 to 0.00196403
GAMG:  Solving for Phi, Initial residual = 2.80295e-07, Final residual = 9.53993e-13, No Iterations 24
Iteration = 89 PABe = 0.0288637
Time = 90
Diagonal goes from 1.96246 to 4.89153
Sum off diagonal goes from 1.96211 to 4.88931
Non-dominance goes from -0.000700626 to 0.00196403
GAMG:  Solving for Phi, Initial residual = 2.26408e-07, Final residual = 8.64149e-13, No Iterations 25
Iteration = 90 PABe = 0.0288637
Time = 91
Diagonal goes from 1.96247 to 4.89153
Sum off diagonal goes from 1.96211 to 4.88931
Non-dominance goes from -0.000700625 to 0.00196403
GAMG:  Solving for Phi, Initial residual = 1.9756e-07, Final residual = 8.66019e-13, No Iterations 26
Iteration = 91 PABe = 0.0288631
Time = 92
Diagonal goes from 1.96247 to 4.89153
Sum off diagonal goes from 1.96211 to 4.88931
Non-dominance goes from -0.000700626 to 0.00196403
GAMG:  Solving for Phi, Initial residual = 2.09821e-07, Final residual = 8.07509e-13, No Iterations 24
Iteration = 92 PABe = 0.0288637
Time = 93
Diagonal goes from 1.96246 to 4.89153
Sum off diagonal goes from 1.96211 to 4.88931
Non-dominance goes from -0.000700626 to 0.00196403
GAMG:  Solving for Phi, Initial residual = 1.71208e-07, Final residual = 9.17697e-13, No Iterations 24
Iteration = 93 PABe = 0.0288636
Time = 94
Diagonal goes from 1.96247 to 4.89153
Sum off diagonal goes from 1.96211 to 4.88931
Non-dominance goes from -0.000700625 to 0.00196403
GAMG:  Solving for Phi, Initial residual = 1.47286e-07, Final residual = 9.97729e-13, No Iterations 25
Iteration = 94 PABe = 0.0288632
Time = 95
Diagonal goes from 1.96247 to 4.89153
Sum off diagonal goes from 1.96211 to 4.88931
Non-dominance goes from -0.000700626 to 0.00196403
GAMG:  Solving for Phi, Initial residual = 1.57447e-07, Final residual = 6.7294e-13, No Iterations 24
Iteration = 95 PABe = 0.0288637
Time = 96
Diagonal goes from 1.96246 to 4.89153
Sum off diagonal goes from 1.96211 to 4.88931
Non-dominance goes from -0.000700626 to 0.00196403
GAMG:  Solving for Phi, Initial residual = 1.29257e-07, Final residual = 9.65042e-13, No Iterations 23
Iteration = 96 PABe = 0.0288636
Time = 97
Diagonal goes from 1.96247 to 4.89153
Sum off diagonal goes from 1.96211 to 4.88931
Non-dominance goes from -0.000700625 to 0.00196403
GAMG:  Solving for Phi, Initial residual = 1.0972e-07, Final residual = 7.49459e-13, No Iterations 25
Iteration = 97 PABe = 0.0288633
Time = 98
Diagonal goes from 1.96247 to 4.89153
Sum off diagonal goes from 1.96211 to 4.88931
Non-dominance goes from -0.000700626 to 0.00196403
GAMG:  Solving for Phi, Initial residual = 1.17883e-07, Final residual = 8.47473e-13, No Iterations 23
Iteration = 98 PABe = 0.0288636
Time = 99
Diagonal goes from 1.96246 to 4.89153
Sum off diagonal goes from 1.96211 to 4.88931
Non-dominance goes from -0.000700626 to 0.00196403
GAMG:  Solving for Phi, Initial residual = 9.77065e-08, Final residual = 6.55373e-13, No Iterations 23
Iteration = 99 PABe = 0.0288636
Time = 100
Diagonal goes from 1.96247 to 4.89153
Sum off diagonal goes from 1.96211 to 4.88931
Non-dominance goes from -0.000700625 to 0.00196403
GAMG:  Solving for Phi, Initial residual = 8.16293e-08, Final residual = 8.58685e-13, No Iterations 24
Iteration = 100 PABe = 0.0288634
Time = 101
Diagonal goes from 1.96247 to 4.89153
Sum off diagonal goes from 1.96211 to 4.88931
Non-dominance goes from -0.000700626 to 0.00196403
GAMG:  Solving for Phi, Initial residual = 8.81321e-08, Final residual = 6.90003e-13, No Iterations 23
Iteration = 101 PABe = 0.0288636
Time = 102
Diagonal goes from 1.96247 to 4.89153
Sum off diagonal goes from 1.96211 to 4.88931
Non-dominance goes from -0.000700626 to 0.00196403
GAMG:  Solving for Phi, Initial residual = 7.43307e-08, Final residual = 6.71394e-13, No Iterations 22
Iteration = 102 PABe = 0.0288635
Time = 103
Diagonal goes from 1.96247 to 4.89153
Sum off diagonal goes from 1.96211 to 4.88931
Non-dominance goes from -0.000700625 to 0.00196403
GAMG:  Solving for Phi, Initial residual = 6.07948e-08, Final residual = 9.80872e-13, No Iterations 23
Iteration = 103 PABe = 0.0288634
Time = 104
Diagonal goes from 1.96247 to 4.89153
Sum off diagonal goes from 1.96211 to 4.88931
Non-dominance goes from -0.000700626 to 0.00196403
GAMG:  Solving for Phi, Initial residual = 6.57899e-08, Final residual = 8.52202e-13, No Iterations 22
Iteration = 104 PABe = 0.0288636
Time = 105
Diagonal goes from 1.96247 to 4.89153
Sum off diagonal goes from 1.96211 to 4.88931
Non-dominance goes from -0.000700626 to 0.00196403
GAMG:  Solving for Phi, Initial residual = 5.65994e-08, Final residual = 6.75807e-13, No Iterations 21
Iteration = 105 PABe = 0.0288635
Time = 106
Diagonal goes from 1.96247 to 4.89153
Sum off diagonal goes from 1.96211 to 4.88931
Non-dominance goes from -0.000700625 to 0.00196403
GAMG:  Solving for Phi, Initial residual = 4.54355e-08, Final residual = 7.30018e-13, No Iterations 23
Iteration = 106 PABe = 0.0288634
Time = 107
Diagonal goes from 1.96247 to 4.89153
Sum off diagonal goes from 1.96211 to 4.88931
Non-dominance goes from -0.000700626 to 0.00196403
GAMG:  Solving for Phi, Initial residual = 4.91482e-08, Final residual = 6.82504e-13, No Iterations 22
Iteration = 107 PABe = 0.0288636
Time = 108
Diagonal goes from 1.96247 to 4.89153
Sum off diagonal goes from 1.96211 to 4.88931
Non-dominance goes from -0.000700626 to 0.00196403
GAMG:  Solving for Phi, Initial residual = 4.30053e-08, Final residual = 6.64159e-13, No Iterations 20
Iteration = 108 PABe = 0.0288635
Time = 109
Diagonal goes from 1.96247 to 4.89153
Sum off diagonal goes from 1.96211 to 4.88931
Non-dominance goes from -0.000700625 to 0.00196403
GAMG:  Solving for Phi, Initial residual = 3.40478e-08, Final residual = 8.28889e-13, No Iterations 22
Iteration = 109 PABe = 0.0288635
Time = 110
Diagonal goes from 1.96247 to 4.89153
Sum off diagonal goes from 1.96211 to 4.88931
Non-dominance goes from -0.000700626 to 0.00196403
GAMG:  Solving for Phi, Initial residual = 3.66821e-08, Final residual = 8.30799e-13, No Iterations 21
Iteration = 110 PABe = 0.0288636
Time = 111
Diagonal goes from 1.96247 to 4.89153
Sum off diagonal goes from 1.96211 to 4.88931
Non-dominance goes from -0.000700626 to 0.00196403
GAMG:  Solving for Phi, Initial residual = 3.26471e-08, Final residual = 9.68283e-13, No Iterations 18
Iteration = 111 PABe = 0.0288635
Time = 112
Diagonal goes from 1.96247 to 4.89153
Sum off diagonal goes from 1.96211 to 4.88931
Non-dominance goes from -0.000700625 to 0.00196403
GAMG:  Solving for Phi, Initial residual = 2.55341e-08, Final residual = 9.38364e-13, No Iterations 21
Iteration = 112 PABe = 0.0288635
Time = 113
Diagonal goes from 1.96247 to 4.89153
Sum off diagonal goes from 1.96211 to 4.88931
Non-dominance goes from -0.000700626 to 0.00196403
GAMG:  Solving for Phi, Initial residual = 2.73439e-08, Final residual = 6.57099e-13, No Iterations 21
Iteration = 113 PABe = 0.0288635
Time = 114
Diagonal goes from 1.96247 to 4.89153
Sum off diagonal goes from 1.96211 to 4.88931
Non-dominance goes from -0.000700626 to 0.00196403
GAMG:  Solving for Phi, Initial residual = 2.47503e-08, Final residual = 8.79235e-13, No Iterations 17
Iteration = 114 PABe = 0.0288635
Time = 115
Diagonal goes from 1.96247 to 4.89153
Sum off diagonal goes from 1.96211 to 4.88931
Non-dominance goes from -0.000700625 to 0.00196403
GAMG:  Solving for Phi, Initial residual = 1.92121e-08, Final residual = 6.91906e-13, No Iterations 21
Iteration = 115 PABe = 0.0288635
Time = 116
Diagonal goes from 1.96247 to 4.89153
Sum off diagonal goes from 1.96211 to 4.88931
Non-dominance goes from -0.000700626 to 0.00196403
GAMG:  Solving for Phi, Initial residual = 2.03522e-08, Final residual = 7.90861e-13, No Iterations 20
Iteration = 116 PABe = 0.0288635
Time = 117
Diagonal goes from 1.96247 to 4.89153
Sum off diagonal goes from 1.96211 to 4.88931
Non-dominance goes from -0.000700626 to 0.00196403
GAMG:  Solving for Phi, Initial residual = 1.87411e-08, Final residual = 7.40445e-13, No Iterations 16
Iteration = 117 PABe = 0.0288635
Time = 118
Diagonal goes from 1.96247 to 4.89153
Sum off diagonal goes from 1.96211 to 4.88931
Non-dominance goes from -0.000700626 to 0.00196403
GAMG:  Solving for Phi, Initial residual = 1.44928e-08, Final residual = 7.784e-13, No Iterations 20
Iteration = 118 PABe = 0.0288635
Time = 119
Diagonal goes from 1.96247 to 4.89153
Sum off diagonal goes from 1.96211 to 4.88931
Non-dominance goes from -0.000700626 to 0.00196403
GAMG:  Solving for Phi, Initial residual = 1.51367e-08, Final residual = 9.4711e-13, No Iterations 19
Iteration = 119 PABe = 0.0288635
Time = 120
Diagonal goes from 1.96247 to 4.89153
Sum off diagonal goes from 1.96211 to 4.88931
Non-dominance goes from -0.000700626 to 0.00196403
GAMG:  Solving for Phi, Initial residual = 1.4182e-08, Final residual = 8.28866e-13, No Iterations 14
Iteration = 120 PABe = 0.0288635
Time = 121
Diagonal goes from 1.96247 to 4.89153
Sum off diagonal goes from 1.96211 to 4.88931
Non-dominance goes from -0.000700626 to 0.00196403
GAMG:  Solving for Phi, Initial residual = 1.09599e-08, Final residual = 8.72326e-13, No Iterations 19
Iteration = 121 PABe = 0.0288635
Time = 122
Diagonal goes from 1.96247 to 4.89153
Sum off diagonal goes from 1.96211 to 4.88931
Non-dominance goes from -0.000700626 to 0.00196403
GAMG:  Solving for Phi, Initial residual = 1.12281e-08, Final residual = 7.37619e-13, No Iterations 19
Iteration = 122 PABe = 0.0288635
Time = 123
Diagonal goes from 1.96247 to 4.89153
Sum off diagonal goes from 1.96211 to 4.88931
Non-dominance goes from -0.000700626 to 0.00196403
GAMG:  Solving for Phi, Initial residual = 1.07236e-08, Final residual = 7.28976e-13, No Iterations 12
Iteration = 123 PABe = 0.0288635
Time = 124
Diagonal goes from 1.96247 to 4.89153
Sum off diagonal goes from 1.96211 to 4.88931
Non-dominance goes from -0.000700626 to 0.00196403
GAMG:  Solving for Phi, Initial residual = 8.30194e-09, Final residual = 9.7478e-13, No Iterations 18
Iteration = 124 PABe = 0.0288635
Time = 125
Diagonal goes from 1.96247 to 4.89153
Sum off diagonal goes from 1.96211 to 4.88931
Non-dominance goes from -0.000700626 to 0.00196403
GAMG:  Solving for Phi, Initial residual = 8.32415e-09, Final residual = 8.76162e-13, No Iterations 18
Iteration = 125 PABe = 0.0288635
Time = 126
Diagonal goes from 1.96247 to 4.89153
Sum off diagonal goes from 1.96211 to 4.88931
Non-dominance goes from -0.000700626 to 0.00196403
GAMG:  Solving for Phi, Initial residual = 8.09985e-09, Final residual = 6.59767e-13, No Iterations 12
Iteration = 126 PABe = 0.0288635
Time = 127
Diagonal goes from 1.96247 to 4.89153
Sum off diagonal goes from 1.96211 to 4.88931
Non-dominance goes from -0.000700626 to 0.00196403
GAMG:  Solving for Phi, Initial residual = 6.28448e-09, Final residual = 7.0898e-13, No Iterations 18
Iteration = 127 PABe = 0.0288635
Time = 128
Diagonal goes from 1.96247 to 4.89153
Sum off diagonal goes from 1.96211 to 4.88931
Non-dominance goes from -0.000700626 to 0.00196403
GAMG:  Solving for Phi, Initial residual = 6.16269e-09, Final residual = 6.77712e-13, No Iterations 18
Iteration = 128 PABe = 0.0288635
Time = 129
Diagonal goes from 1.96247 to 4.89153
Sum off diagonal goes from 1.96211 to 4.88931
Non-dominance goes from -0.000700626 to 0.00196403
GAMG:  Solving for Phi, Initial residual = 6.10406e-09, Final residual = 7.99356e-13, No Iterations 12
Iteration = 129 PABe = 0.0288635
Time = 130
Diagonal goes from 1.96247 to 4.89153
Sum off diagonal goes from 1.96211 to 4.88931
Non-dominance goes from -0.000700626 to 0.00196403
GAMG:  Solving for Phi, Initial residual = 4.75764e-09, Final residual = 7.86884e-13, No Iterations 17
Iteration = 130 PABe = 0.0288635
Time = 131
Diagonal goes from 1.96247 to 4.89153
Sum off diagonal goes from 1.96211 to 4.88931
Non-dominance goes from -0.000700626 to 0.00196403
GAMG:  Solving for Phi, Initial residual = 4.5642e-09, Final residual = 7.99009e-13, No Iterations 17
Iteration = 131 PABe = 0.0288635
Time = 132
Diagonal goes from 1.96247 to 4.89153
Sum off diagonal goes from 1.96211 to 4.88931
Non-dominance goes from -0.000700626 to 0.00196403
GAMG:  Solving for Phi, Initial residual = 4.60073e-09, Final residual = 9.02779e-13, No Iterations 12
Iteration = 132 PABe = 0.0288635
Time = 133
Diagonal goes from 1.96247 to 4.89153
Sum off diagonal goes from 1.96211 to 4.88931
Non-dominance goes from -0.000700626 to 0.00196403
GAMG:  Solving for Phi, Initial residual = 3.60113e-09, Final residual = 8.69902e-13, No Iterations 16
Iteration = 133 PABe = 0.0288635
Time = 134
Diagonal goes from 1.96247 to 4.89153
Sum off diagonal goes from 1.96211 to 4.88931
Non-dominance goes from -0.000700626 to 0.00196403
GAMG:  Solving for Phi, Initial residual = 3.38441e-09, Final residual = 9.38734e-13, No Iterations 16
Iteration = 134 PABe = 0.0288635
Time = 135
Diagonal goes from 1.96247 to 4.89153
Sum off diagonal goes from 1.96211 to 4.88931
Non-dominance goes from -0.000700626 to 0.00196403
GAMG:  Solving for Phi, Initial residual = 3.46382e-09, Final residual = 9.28932e-13, No Iterations 12
Iteration = 135 PABe = 0.0288635
Time = 136
Diagonal goes from 1.96247 to 4.89153
Sum off diagonal goes from 1.96211 to 4.88931
Non-dominance goes from -0.000700626 to 0.00196403
GAMG:  Solving for Phi, Initial residual = 2.72299e-09, Final residual = 9.58209e-13, No Iterations 15
Iteration = 136 PABe = 0.0288635
Time = 137
Diagonal goes from 1.96247 to 4.89153
Sum off diagonal goes from 1.96211 to 4.88931
Non-dominance goes from -0.000700626 to 0.00196403
GAMG:  Solving for Phi, Initial residual = 2.52149e-09, Final residual = 7.17986e-13, No Iterations 16
Iteration = 137 PABe = 0.0288635
Time = 138
Diagonal goes from 1.96247 to 4.89153
Sum off diagonal goes from 1.96211 to 4.88931
Non-dominance goes from -0.000700626 to 0.00196403
GAMG:  Solving for Phi, Initial residual = 2.60592e-09, Final residual = 8.90503e-13, No Iterations 12
Iteration = 138 PABe = 0.0288635
Time = 139
Diagonal goes from 1.96247 to 4.89153
Sum off diagonal goes from 1.96211 to 4.88931
Non-dominance goes from -0.000700626 to 0.00196403
GAMG:  Solving for Phi, Initial residual = 2.05881e-09, Final residual = 6.85836e-13, No Iterations 15
Iteration = 139 PABe = 0.0288635
Time = 140
Diagonal goes from 1.96247 to 4.89153
Sum off diagonal goes from 1.96211 to 4.88931
Non-dominance goes from -0.000700626 to 0.00196403
GAMG:  Solving for Phi, Initial residual = 1.87925e-09, Final residual = 8.39397e-13, No Iterations 15
Iteration = 140 PABe = 0.0288635
Time = 141
Diagonal goes from 1.96247 to 4.89153
Sum off diagonal goes from 1.96211 to 4.88931
Non-dominance goes from -0.000700626 to 0.00196403
GAMG:  Solving for Phi, Initial residual = 1.95576e-09, Final residual = 8.11433e-13, No Iterations 12
Iteration = 141 PABe = 0.0288635
Time = 142
Diagonal goes from 1.96247 to 4.89153
Sum off diagonal goes from 1.96211 to 4.88931
Non-dominance goes from -0.000700626 to 0.00196403
GAMG:  Solving for Phi, Initial residual = 1.55775e-09, Final residual = 7.48836e-13, No Iterations 14
Iteration = 142 PABe = 0.0288635
Time = 143
Diagonal goes from 1.96247 to 4.89153
Sum off diagonal goes from 1.96211 to 4.88931
Non-dominance goes from -0.000700626 to 0.00196403
GAMG:  Solving for Phi, Initial residual = 1.40136e-09, Final residual = 9.78665e-13, No Iterations 14
Iteration = 143 PABe = 0.0288635
Time = 144
Diagonal goes from 1.96247 to 4.89153
Sum off diagonal goes from 1.96211 to 4.88931
Non-dominance goes from -0.000700626 to 0.00196403
GAMG:  Solving for Phi, Initial residual = 1.46429e-09, Final residual = 7.12614e-13, No Iterations 12
Iteration = 144 PABe = 0.0288635
Time = 145
Diagonal goes from 1.96247 to 4.89153
Sum off diagonal goes from 1.96211 to 4.88931
Non-dominance goes from -0.000700626 to 0.00196403
GAMG:  Solving for Phi, Initial residual = 1.17649e-09, Final residual = 8.14121e-13, No Iterations 13
Iteration = 145 PABe = 0.0288635
Time = 146
Diagonal goes from 1.96247 to 4.89153
Sum off diagonal goes from 1.96211 to 4.88931
Non-dominance goes from -0.000700626 to 0.00196403
GAMG:  Solving for Phi, Initial residual = 1.04317e-09, Final residual = 7.41284e-13, No Iterations 14
Iteration = 146 PABe = 0.0288635
Time = 147
Diagonal goes from 1.96247 to 4.89153
Sum off diagonal goes from 1.96211 to 4.88931
Non-dominance goes from -0.000700626 to 0.00196403
GAMG:  Solving for Phi, Initial residual = 1.09894e-09, Final residual = 9.4937e-13, No Iterations 11
Iteration = 147 PABe = 0.0288635
Time = 148
Diagonal goes from 1.96247 to 4.89153
Sum off diagonal goes from 1.96211 to 4.88931
Non-dominance goes from -0.000700626 to 0.00196403
GAMG:  Solving for Phi, Initial residual = 8.87462e-10, Final residual = 8.8297e-13, No Iterations 12
Iteration = 148 PABe = 0.0288635
Time = 149
Diagonal goes from 1.96247 to 4.89153
Sum off diagonal goes from 1.96211 to 4.88931
Non-dominance goes from -0.000700626 to 0.00196403
GAMG:  Solving for Phi, Initial residual = 7.76773e-10, Final residual = 8.60003e-13, No Iterations 13
Iteration = 149 PABe = 0.0288635
Time = 150
Diagonal goes from 1.96247 to 4.89153
Sum off diagonal goes from 1.96211 to 4.88931
Non-dominance goes from -0.000700626 to 0.00196403
GAMG:  Solving for Phi, Initial residual = 8.2358e-10, Final residual = 7.94962e-13, No Iterations 11
Iteration = 150 PABe = 0.0288635
Time = 151
Diagonal goes from 1.96247 to 4.89153
Sum off diagonal goes from 1.96211 to 4.88931
Non-dominance goes from -0.000700626 to 0.00196403
GAMG:  Solving for Phi, Initial residual = 6.70862e-10, Final residual = 9.52901e-13, No Iterations 11
Iteration = 151 PABe = 0.0288635
Time = 152
Diagonal goes from 1.96247 to 4.89153
Sum off diagonal goes from 1.96211 to 4.88931
Non-dominance goes from -0.000700626 to 0.00196403
GAMG:  Solving for Phi, Initial residual = 5.79574e-10, Final residual = 9.95684e-13, No Iterations 12
Iteration = 152 PABe = 0.0288635
Time = 153
Diagonal goes from 1.96247 to 4.89153
Sum off diagonal goes from 1.96211 to 4.88931
Non-dominance goes from -0.000700626 to 0.00196403
GAMG:  Solving for Phi, Initial residual = 6.17388e-10, Final residual = 6.53163e-13, No Iterations 11
Iteration = 153 PABe = 0.0288635
Time = 154
Diagonal goes from 1.96247 to 4.89153
Sum off diagonal goes from 1.96211 to 4.88931
Non-dominance goes from -0.000700626 to 0.00196403
GAMG:  Solving for Phi, Initial residual = 5.06351e-10, Final residual = 6.65894e-13, No Iterations 11
Iteration = 154 PABe = 0.0288635
Time = 155
Diagonal goes from 1.96247 to 4.89153
Sum off diagonal goes from 1.96211 to 4.88931
Non-dominance goes from -0.000700626 to 0.00196403
GAMG:  Solving for Phi, Initial residual = 4.32433e-10, Final residual = 7.48817e-13, No Iterations 12
Iteration = 155 PABe = 0.0288635
Time = 156
Diagonal goes from 1.96247 to 4.89153
Sum off diagonal goes from 1.96211 to 4.88931
Non-dominance goes from -0.000700626 to 0.00196403
GAMG:  Solving for Phi, Initial residual = 4.63127e-10, Final residual = 8.30161e-13, No Iterations 10
Iteration = 156 PABe = 0.0288635
Time = 157
Diagonal goes from 1.96247 to 4.89153
Sum off diagonal goes from 1.96211 to 4.88931
Non-dominance goes from -0.000700626 to 0.00196403
GAMG:  Solving for Phi, Initial residual = 3.82062e-10, Final residual = 7.15351e-13, No Iterations 10
Iteration = 157 PABe = 0.0288635
Time = 158
Diagonal goes from 1.96247 to 4.89153
Sum off diagonal goes from 1.96211 to 4.88931
Non-dominance goes from -0.000700626 to 0.00196403
GAMG:  Solving for Phi, Initial residual = 3.22638e-10, Final residual = 8.65412e-13, No Iterations 11
Iteration = 158 PABe = 0.0288635
Time = 159
Diagonal goes from 1.96247 to 4.89153
Sum off diagonal goes from 1.96211 to 4.88931
Non-dominance goes from -0.000700626 to 0.00196403
GAMG:  Solving for Phi, Initial residual = 3.46623e-10, Final residual = 6.64752e-13, No Iterations 10
Iteration = 159 PABe = 0.0288635
Time = 160
Diagonal goes from 1.96247 to 4.89153
Sum off diagonal goes from 1.96211 to 4.88931
Non-dominance goes from -0.000700626 to 0.00196403
GAMG:  Solving for Phi, Initial residual = 2.8886e-10, Final residual = 7.65252e-13, No Iterations 9
Iteration = 160 PABe = 0.0288635
Time = 161
Diagonal goes from 1.96247 to 4.89153
Sum off diagonal goes from 1.96211 to 4.88931
Non-dominance goes from -0.000700626 to 0.00196403
GAMG:  Solving for Phi, Initial residual = 2.40377e-10, Final residual = 9.98432e-13, No Iterations 10
Iteration = 161 PABe = 0.0288635
Time = 162
Diagonal goes from 1.96247 to 4.89153
Sum off diagonal goes from 1.96211 to 4.88931
Non-dominance goes from -0.000700626 to 0.00196403
GAMG:  Solving for Phi, Initial residual = 2.58759e-10, Final residual = 8.1903e-13, No Iterations 9
Iteration = 162 PABe = 0.0288635
Time = 163
Diagonal goes from 1.96247 to 4.89153
Sum off diagonal goes from 1.96211 to 4.88931
Non-dominance goes from -0.000700626 to 0.00196403
GAMG:  Solving for Phi, Initial residual = 2.18307e-10, Final residual = 8.31432e-13, No Iterations 8
Iteration = 163 PABe = 0.0288635
Time = 164
Diagonal goes from 1.96247 to 4.89153
Sum off diagonal goes from 1.96211 to 4.88931
Non-dominance goes from -0.000700626 to 0.00196403
GAMG:  Solving for Phi, Initial residual = 1.79251e-10, Final residual = 7.43852e-13, No Iterations 10
Iteration = 164 PABe = 0.0288635
Time = 165
Diagonal goes from 1.96247 to 4.89153
Sum off diagonal goes from 1.96211 to 4.88931
Non-dominance goes from -0.000700626 to 0.00196403
GAMG:  Solving for Phi, Initial residual = 1.93149e-10, Final residual = 6.42105e-13, No Iterations 9
Iteration = 165 PABe = 0.0288635
Time = 166
Diagonal goes from 1.96247 to 4.89153
Sum off diagonal goes from 1.96211 to 4.88931
Non-dominance goes from -0.000700626 to 0.00196403
GAMG:  Solving for Phi, Initial residual = 1.65054e-10, Final residual = 8.92888e-13, No Iterations 7
Iteration = 166 PABe = 0.0288635
Time = 167
Diagonal goes from 1.96247 to 4.89153
Sum off diagonal goes from 1.96211 to 4.88931
Non-dominance goes from -0.000700626 to 0.00196403
GAMG:  Solving for Phi, Initial residual = 1.33443e-10, Final residual = 8.53665e-13, No Iterations 9
Iteration = 167 PABe = 0.0288635
Time = 168
Diagonal goes from 1.96247 to 4.89153
Sum off diagonal goes from 1.96211 to 4.88931
Non-dominance goes from -0.000700626 to 0.00196403
GAMG:  Solving for Phi, Initial residual = 1.43242e-10, Final residual = 7.75232e-13, No Iterations 8
Iteration = 168 PABe = 0.0288635
Time = 169
Diagonal goes from 1.96247 to 4.89153
Sum off diagonal goes from 1.96211 to 4.88931
Non-dominance goes from -0.000700626 to 0.00196403
GAMG:  Solving for Phi, Initial residual = 1.23666e-10, Final residual = 9.96105e-13, No Iterations 6
Iteration = 169 PABe = 0.0288635
Time = 170
Diagonal goes from 1.96247 to 4.89153
Sum off diagonal goes from 1.96211 to 4.88931
Non-dominance goes from -0.000700626 to 0.00196403
GAMG:  Solving for Phi, Initial residual = 9.91051e-11, Final residual = 9.8226e-13, No Iterations 8
Iteration = 170 PABe = 0.0288635
Time = 171
Diagonal goes from 1.96247 to 4.89153
Sum off diagonal goes from 1.96211 to 4.88931
Non-dominance goes from -0.000700626 to 0.00196403
GAMG:  Solving for Phi, Initial residual = 1.05902e-10, Final residual = 9.19735e-13, No Iterations 7
Iteration = 171 PABe = 0.0288635
Time = 172
Diagonal goes from 1.96247 to 4.89153
Sum off diagonal goes from 1.96211 to 4.88931
Non-dominance goes from -0.000700626 to 0.00196403
GAMG:  Solving for Phi, Initial residual = 9.18013e-11, Final residual = 7.60217e-13, No Iterations 6
Iteration = 172 PABe = 0.0288635
Time = 173
Diagonal goes from 1.96247 to 4.89153
Sum off diagonal goes from 1.96211 to 4.88931
Non-dominance goes from -0.000700626 to 0.00196403
GAMG:  Solving for Phi, Initial residual = 7.38564e-11, Final residual = 7.35383e-13, No Iterations 8
Iteration = 173 PABe = 0.0288635
Time = 174
Diagonal goes from 1.96247 to 4.89153
Sum off diagonal goes from 1.96211 to 4.88931
Non-dominance goes from -0.000700626 to 0.00196403
GAMG:  Solving for Phi, Initial residual = 7.91857e-11, Final residual = 6.89528e-13, No Iterations 7
Iteration = 174 PABe = 0.0288635
Time = 175
Diagonal goes from 1.96247 to 4.89153
Sum off diagonal goes from 1.96211 to 4.88931
Non-dominance goes from -0.000700626 to 0.00196403
GAMG:  Solving for Phi, Initial residual = 6.86889e-11, Final residual = 8.80479e-13, No Iterations 5
Iteration = 175 PABe = 0.0288635
Time = 176
Diagonal goes from 1.96247 to 4.89153
Sum off diagonal goes from 1.96211 to 4.88931
Non-dominance goes from -0.000700626 to 0.00196403
GAMG:  Solving for Phi, Initial residual = 5.48366e-11, Final residual = 8.46178e-13, No Iterations 7
Iteration = 176 PABe = 0.0288635
Time = 177
Diagonal goes from 1.96247 to 4.89153
Sum off diagonal goes from 1.96211 to 4.88931
Non-dominance goes from -0.000700626 to 0.00196403
GAMG:  Solving for Phi, Initial residual = 5.81062e-11, Final residual = 7.88925e-13, No Iterations 6
Iteration = 177 PABe = 0.0288635
Time = 178
Diagonal goes from 1.96247 to 4.89153
Sum off diagonal goes from 1.96211 to 4.88931
Non-dominance goes from -0.000700626 to 0.00196403
GAMG:  Solving for Phi, Initial residual = 5.01904e-11, Final residual = 7.29884e-13, No Iterations 5
Iteration = 178 PABe = 0.0288635
Time = 179
Diagonal goes from 1.96247 to 4.89153
Sum off diagonal goes from 1.96211 to 4.88931
Non-dominance goes from -0.000700626 to 0.00196403
GAMG:  Solving for Phi, Initial residual = 4.07143e-11, Final residual = 6.31877e-13, No Iterations 7
Iteration = 179 PABe = 0.0288635
Time = 180
Diagonal goes from 1.96247 to 4.89153
Sum off diagonal goes from 1.96211 to 4.88931
Non-dominance goes from -0.000700626 to 0.00196403
GAMG:  Solving for Phi, Initial residual = 4.33011e-11, Final residual = 9.29005e-13, No Iterations 5
Iteration = 180 PABe = 0.0288635
Time = 181
Diagonal goes from 1.96247 to 4.89153
Sum off diagonal goes from 1.96211 to 4.88931
Non-dominance goes from -0.000700626 to 0.00196403
GAMG:  Solving for Phi, Initial residual = 3.7175e-11, Final residual = 9.99542e-13, No Iterations 4
Iteration = 181 PABe = 0.0288635
Time = 182
Diagonal goes from 1.96247 to 4.89153
Sum off diagonal goes from 1.96211 to 4.88931
Non-dominance goes from -0.000700626 to 0.00196403
GAMG:  Solving for Phi, Initial residual = 3.03679e-11, Final residual = 7.309e-13, No Iterations 6
Iteration = 182 PABe = 0.0288635
Time = 183
Diagonal goes from 1.96247 to 4.89153
Sum off diagonal goes from 1.96211 to 4.88931
Non-dominance goes from -0.000700626 to 0.00196403
GAMG:  Solving for Phi, Initial residual = 3.16117e-11, Final residual = 9.99778e-13, No Iterations 4
Iteration = 183 PABe = 0.0288635
Time = 184
Diagonal goes from 1.96247 to 4.89153
Sum off diagonal goes from 1.96211 to 4.88931
Non-dominance goes from -0.000700626 to 0.00196403
GAMG:  Solving for Phi, Initial residual = 2.6876e-11, Final residual = 9.4909e-13, No Iterations 4
Iteration = 184 PABe = 0.0288635
Time = 185
Diagonal goes from 1.96247 to 4.89153
Sum off diagonal goes from 1.96211 to 4.88931
Non-dominance goes from -0.000700626 to 0.00196403
GAMG:  Solving for Phi, Initial residual = 2.29395e-11, Final residual = 8.76821e-13, No Iterations 5
Iteration = 185 PABe = 0.0288635
Time = 186
Diagonal goes from 1.96247 to 4.89153
Sum off diagonal goes from 1.96211 to 4.88931
Non-dominance goes from -0.000700626 to 0.00196403
GAMG:  Solving for Phi, Initial residual = 2.34132e-11, Final residual = 5.44906e-13, No Iterations 4
Iteration = 186 PABe = 0.0288635
Time = 187
Diagonal goes from 1.96247 to 4.89153
Sum off diagonal goes from 1.96211 to 4.88931
Non-dominance goes from -0.000700626 to 0.00196403
GAMG:  Solving for Phi, Initial residual = 1.94199e-11, Final residual = 8.48986e-13, No Iterations 4
Iteration = 187 PABe = 0.0288635
Time = 188
Diagonal goes from 1.96247 to 4.89153
Sum off diagonal goes from 1.96211 to 4.88931
Non-dominance goes from -0.000700626 to 0.00196403
GAMG:  Solving for Phi, Initial residual = 1.73373e-11, Final residual = 6.21949e-13, No Iterations 5
Iteration = 188 PABe = 0.0288635
Time = 189
Diagonal goes from 1.96247 to 4.89153
Sum off diagonal goes from 1.96211 to 4.88931
Non-dominance goes from -0.000700626 to 0.00196403
GAMG:  Solving for Phi, Initial residual = 1.73057e-11, Final residual = 5.60325e-13, No Iterations 3
Iteration = 189 PABe = 0.0288635
Time = 190
Diagonal goes from 1.96247 to 4.89153
Sum off diagonal goes from 1.96211 to 4.88931
Non-dominance goes from -0.000700626 to 0.00196403
GAMG:  Solving for Phi, Initial residual = 1.40801e-11, Final residual = 7.38499e-13, No Iterations 4
Iteration = 190 PABe = 0.0288635
Time = 191
Diagonal goes from 1.96247 to 4.89153
Sum off diagonal goes from 1.96211 to 4.88931
Non-dominance goes from -0.000700626 to 0.00196403
GAMG:  Solving for Phi, Initial residual = 1.31347e-11, Final residual = 7.14455e-13, No Iterations 4
Iteration = 191 PABe = 0.0288635
Time = 192
Diagonal goes from 1.96247 to 4.89153
Sum off diagonal goes from 1.96211 to 4.88931
Non-dominance goes from -0.000700626 to 0.00196403
GAMG:  Solving for Phi, Initial residual = 1.27122e-11, Final residual = 7.20861e-13, No Iterations 2
Iteration = 192 PABe = 0.0288635
Time = 193
Diagonal goes from 1.96247 to 4.89153
Sum off diagonal goes from 1.96211 to 4.88931
Non-dominance goes from -0.000700626 to 0.00196403
GAMG:  Solving for Phi, Initial residual = 9.87448e-12, Final residual = 9.69918e-13, No Iterations 3
Iteration = 193 PABe = 0.0288635
Time = 194
Diagonal goes from 1.96247 to 4.89153
Sum off diagonal goes from 1.96211 to 4.88931
Non-dominance goes from -0.000700626 to 0.00196403
GAMG:  Solving for Phi, Initial residual = 9.22714e-12, Final residual = 5.84098e-13, No Iterations 3
Iteration = 194 PABe = 0.0288635
Time = 195
Diagonal goes from 1.96247 to 4.89153
Sum off diagonal goes from 1.96211 to 4.88931
Non-dominance goes from -0.000700626 to 0.00196403
GAMG:  Solving for Phi, Initial residual = 8.05976e-12, Final residual = 6.55557e-13, No Iterations 2
Iteration = 195 PABe = 0.0288635
Time = 196
Diagonal goes from 1.96247 to 4.89153
Sum off diagonal goes from 1.96211 to 4.88931
Non-dominance goes from -0.000700626 to 0.00196403
GAMG:  Solving for Phi, Initial residual = 6.20838e-12, Final residual = 6.08076e-13, No Iterations 3
Iteration = 196 PABe = 0.0288635
Time = 197
Diagonal goes from 1.96247 to 4.89153
Sum off diagonal goes from 1.96211 to 4.88931
Non-dominance goes from -0.000700626 to 0.00196403
GAMG:  Solving for Phi, Initial residual = 5.84134e-12, Final residual = 4.27433e-13, No Iterations 2
Iteration = 197 PABe = 0.0288635
Time = 198
Diagonal goes from 1.96247 to 4.89153
Sum off diagonal goes from 1.96211 to 4.88931
Non-dominance goes from -0.000700626 to 0.00196403
GAMG:  Solving for Phi, Initial residual = 4.78164e-12, Final residual = 7.23079e-13, No Iterations 2
Iteration = 198 PABe = 0.0288635
Time = 199
Diagonal goes from 1.96247 to 4.89153
Sum off diagonal goes from 1.96211 to 4.88931
Non-dominance goes from -0.000700626 to 0.00196403
GAMG:  Solving for Phi, Initial residual = 4.05789e-12, Final residual = 4.88951e-13, No Iterations 2
Iteration = 199 PABe = 0.0288635
Time = 200
Diagonal goes from 1.96247 to 4.89153
Sum off diagonal goes from 1.96211 to 4.88931
Non-dominance goes from -0.000700626 to 0.00196403
GAMG:  Solving for Phi, Initial residual = 3.32772e-12, Final residual = 6.38842e-13, No Iterations 1
Iteration = 200 PABe = 0.0288635
Time = 201
Diagonal goes from 1.96247 to 4.89153
Sum off diagonal goes from 1.96211 to 4.88931
Non-dominance goes from -0.000700626 to 0.00196403
GAMG:  Solving for Phi, Initial residual = 2.29448e-12, Final residual = 6.07861e-13, No Iterations 1
Iteration = 201 PABe = 0.0288635
Time = 202
Diagonal goes from 1.96247 to 4.89153
Sum off diagonal goes from 1.96211 to 4.88931
Non-dominance goes from -0.000700626 to 0.00196403
GAMG:  Solving for Phi, Initial residual = 1.52757e-12, Final residual = 3.02616e-13, No Iterations 1
Iteration = 202 PABe = 0.0288635
Time = 203
Diagonal goes from 1.96247 to 4.89153
Sum off diagonal goes from 1.96211 to 4.88931
Non-dominance goes from -0.000700626 to 0.00196403
GAMG:  Solving for Phi, Initial residual = 1.05128e-12, Final residual = 2.70217e-13, No Iterations 1
Iteration = 203 PABe = 0.0288635
Time = 204
Diagonal goes from 1.96247 to 4.89153
Sum off diagonal goes from 1.96211 to 4.88931
Non-dominance goes from -0.000700626 to 0.00196403
GAMG:  Solving for Phi, Initial residual = 6.38689e-13, Final residual = 6.38689e-13, No Iterations 0
Iteration = 204 PABe = 0.0288635
Time = 205
Diagonal goes from 1.96247 to 4.89153
Sum off diagonal goes from 1.96211 to 4.88931
Non-dominance goes from -0.000700626 to 0.00196403
GAMG:  Solving for Phi, Initial residual = 6.38689e-13, Final residual = 6.38689e-13, No Iterations 0
Iteration = 205 PABe = 0.0288635
Time = 206
Diagonal goes from 1.96247 to 4.89153
Sum off diagonal goes from 1.96211 to 4.88931
Non-dominance goes from -0.000700626 to 0.00196403
GAMG:  Solving for Phi, Initial residual = 6.38689e-13, Final residual = 6.38689e-13, No Iterations 0
Iteration = 206 PABe = 0.0288635
Time = 207
Diagonal goes from 1.96247 to 4.89153
Sum off diagonal goes from 1.96211 to 4.88931
Non-dominance goes from -0.000700626 to 0.00196403
GAMG:  Solving for Phi, Initial residual = 6.38689e-13, Final residual = 6.38689e-13, No Iterations 0
Iteration = 207 PABe = 0.0288635
Time = 208
Diagonal goes from 1.96247 to 4.89153
Sum off diagonal goes from 1.96211 to 4.88931
Non-dominance goes from -0.000700626 to 0.00196403
GAMG:  Solving for Phi, Initial residual = 6.38689e-13, Final residual = 6.38689e-13, No Iterations 0
Iteration = 208 PABe = 0.0288635
Time = 209
Diagonal goes from 1.96247 to 4.89153
Sum off diagonal goes from 1.96211 to 4.88931
Non-dominance goes from -0.000700626 to 0.00196403
GAMG:  Solving for Phi, Initial residual = 6.38689e-13, Final residual = 6.38689e-13, No Iterations 0
Iteration = 209 PABe = 0.0288635
Time = 210
Diagonal goes from 1.96247 to 4.89153
Sum off diagonal goes from 1.96211 to 4.88931
Non-dominance goes from -0.000700626 to 0.00196403
GAMG:  Solving for Phi, Initial residual = 6.38689e-13, Final residual = 6.38689e-13, No Iterations 0
Iteration = 210 PABe = 0.0288635
Time = 211
Diagonal goes from 1.96247 to 4.89153
Sum off diagonal goes from 1.96211 to 4.88931
Non-dominance goes from -0.000700626 to 0.00196403
GAMG:  Solving for Phi, Initial residual = 6.38689e-13, Final residual = 6.38689e-13, No Iterations 0
Iteration = 211 PABe = 0.0288635
Time = 212
Diagonal goes from 1.96247 to 4.89153
Sum off diagonal goes from 1.96211 to 4.88931
Non-dominance goes from -0.000700626 to 0.00196403
GAMG:  Solving for Phi, Initial residual = 6.38689e-13, Final residual = 6.38689e-13, No Iterations 0
Iteration = 212 PABe = 0.0288635
Time = 213
Diagonal goes from 1.96247 to 4.89153
Sum off diagonal goes from 1.96211 to 4.88931
Non-dominance goes from -0.000700626 to 0.00196403
GAMG:  Solving for Phi, Initial residual = 6.38689e-13, Final residual = 6.38689e-13, No Iterations 0
Iteration = 213 PABe = 0.0288635
Time = 214
Diagonal goes from 1.96247 to 4.89153
Sum off diagonal goes from 1.96211 to 4.88931
Non-dominance goes from -0.000700626 to 0.00196403
GAMG:  Solving for Phi, Initial residual = 6.38689e-13, Final residual = 6.38689e-13, No Iterations 0
Iteration = 214 PABe = 0.0288635
Time = 215
Diagonal goes from 1.96247 to 4.89153
Sum off diagonal goes from 1.96211 to 4.88931
Non-dominance goes from -0.000700626 to 0.00196403
GAMG:  Solving for Phi, Initial residual = 6.38689e-13, Final residual = 6.38689e-13, No Iterations 0
Iteration = 215 PABe = 0.0288635
Time = 216
Diagonal goes from 1.96247 to 4.89153
Sum off diagonal goes from 1.96211 to 4.88931
Non-dominance goes from -0.000700626 to 0.00196403
GAMG:  Solving for Phi, Initial residual = 6.38689e-13, Final residual = 6.38689e-13, No Iterations 0
Iteration = 216 PABe = 0.0288635
Time = 217
Diagonal goes from 1.96247 to 4.89153
Sum off diagonal goes from 1.96211 to 4.88931
Non-dominance goes from -0.000700626 to 0.00196403
GAMG:  Solving for Phi, Initial residual = 6.38689e-13, Final residual = 6.38689e-13, No Iterations 0
Iteration = 217 PABe = 0.0288635
Time = 218
Diagonal goes from 1.96247 to 4.89153
Sum off diagonal goes from 1.96211 to 4.88931
Non-dominance goes from -0.000700626 to 0.00196403
GAMG:  Solving for Phi, Initial residual = 6.38689e-13, Final residual = 6.38689e-13, No Iterations 0
Iteration = 218 PABe = 0.0288635
Time = 219
Diagonal goes from 1.96247 to 4.89153
Sum off diagonal goes from 1.96211 to 4.88931
Non-dominance goes from -0.000700626 to 0.00196403
GAMG:  Solving for Phi, Initial residual = 6.38689e-13, Final residual = 6.38689e-13, No Iterations 0
Iteration = 219 PABe = 0.0288635
Time = 220
Diagonal goes from 1.96247 to 4.89153
Sum off diagonal goes from 1.96211 to 4.88931
Non-dominance goes from -0.000700626 to 0.00196403
GAMG:  Solving for Phi, Initial residual = 6.38689e-13, Final residual = 6.38689e-13, No Iterations 0
Iteration = 220 PABe = 0.0288635
Time = 221
Diagonal goes from 1.96247 to 4.89153
Sum off diagonal goes from 1.96211 to 4.88931
Non-dominance goes from -0.000700626 to 0.00196403
GAMG:  Solving for Phi, Initial residual = 6.38689e-13, Final residual = 6.38689e-13, No Iterations 0
Iteration = 221 PABe = 0.0288635
Time = 222
Diagonal goes from 1.96247 to 4.89153
Sum off diagonal goes from 1.96211 to 4.88931
Non-dominance goes from -0.000700626 to 0.00196403
GAMG:  Solving for Phi, Initial residual = 6.38689e-13, Final residual = 6.38689e-13, No Iterations 0
Iteration = 222 PABe = 0.0288635
Time = 223
Diagonal goes from 1.96247 to 4.89153
Sum off diagonal goes from 1.96211 to 4.88931
Non-dominance goes from -0.000700626 to 0.00196403
GAMG:  Solving for Phi, Initial residual = 6.38689e-13, Final residual = 6.38689e-13, No Iterations 0
Iteration = 223 PABe = 0.0288635
Time = 224
Diagonal goes from 1.96247 to 4.89153
Sum off diagonal goes from 1.96211 to 4.88931
Non-dominance goes from -0.000700626 to 0.00196403
GAMG:  Solving for Phi, Initial residual = 6.38689e-13, Final residual = 6.38689e-13, No Iterations 0
Iteration = 224 PABe = 0.0288635
Time = 225
Diagonal goes from 1.96247 to 4.89153
Sum off diagonal goes from 1.96211 to 4.88931
Non-dominance goes from -0.000700626 to 0.00196403
GAMG:  Solving for Phi, Initial residual = 6.38689e-13, Final residual = 6.38689e-13, No Iterations 0
Iteration = 225 PABe = 0.0288635
Time = 226
Diagonal goes from 1.96247 to 4.89153
Sum off diagonal goes from 1.96211 to 4.88931
Non-dominance goes from -0.000700626 to 0.00196403
GAMG:  Solving for Phi, Initial residual = 6.38689e-13, Final residual = 6.38689e-13, No Iterations 0
Iteration = 226 PABe = 0.0288635
Time = 227
Diagonal goes from 1.96247 to 4.89153
Sum off diagonal goes from 1.96211 to 4.88931
Non-dominance goes from -0.000700626 to 0.00196403
GAMG:  Solving for Phi, Initial residual = 6.38689e-13, Final residual = 6.38689e-13, No Iterations 0
Iteration = 227 PABe = 0.0288635
Time = 228
Diagonal goes from 1.96247 to 4.89153
Sum off diagonal goes from 1.96211 to 4.88931
Non-dominance goes from -0.000700626 to 0.00196403
GAMG:  Solving for Phi, Initial residual = 6.38689e-13, Final residual = 6.38689e-13, No Iterations 0
Iteration = 228 PABe = 0.0288635
Time = 229
Diagonal goes from 1.96247 to 4.89153
Sum off diagonal goes from 1.96211 to 4.88931
Non-dominance goes from -0.000700626 to 0.00196403
GAMG:  Solving for Phi, Initial residual = 6.38689e-13, Final residual = 6.38689e-13, No Iterations 0
Iteration = 229 PABe = 0.0288635
Time = 230
Diagonal goes from 1.96247 to 4.89153
Sum off diagonal goes from 1.96211 to 4.88931
Non-dominance goes from -0.000700626 to 0.00196403
GAMG:  Solving for Phi, Initial residual = 6.38689e-13, Final residual = 6.38689e-13, No Iterations 0
Iteration = 230 PABe = 0.0288635
Time = 231
Diagonal goes from 1.96247 to 4.89153
Sum off diagonal goes from 1.96211 to 4.88931
Non-dominance goes from -0.000700626 to 0.00196403
GAMG:  Solving for Phi, Initial residual = 6.38689e-13, Final residual = 6.38689e-13, No Iterations 0
Iteration = 231 PABe = 0.0288635
Time = 232
Diagonal goes from 1.96247 to 4.89153
Sum off diagonal goes from 1.96211 to 4.88931
Non-dominance goes from -0.000700626 to 0.00196403
GAMG:  Solving for Phi, Initial residual = 6.38689e-13, Final residual = 6.38689e-13, No Iterations 0
Iteration = 232 PABe = 0.0288635
Time = 233
Diagonal goes from 1.96247 to 4.89153
Sum off diagonal goes from 1.96211 to 4.88931
Non-dominance goes from -0.000700626 to 0.00196403
GAMG:  Solving for Phi, Initial residual = 6.38689e-13, Final residual = 6.38689e-13, No Iterations 0
Iteration = 233 PABe = 0.0288635
Time = 234
Diagonal goes from 1.96247 to 4.89153
Sum off diagonal goes from 1.96211 to 4.88931
Non-dominance goes from -0.000700626 to 0.00196403
GAMG:  Solving for Phi, Initial residual = 6.38689e-13, Final residual = 6.38689e-13, No Iterations 0
Iteration = 234 PABe = 0.0288635
Time = 235
Diagonal goes from 1.96247 to 4.89153
Sum off diagonal goes from 1.96211 to 4.88931
Non-dominance goes from -0.000700626 to 0.00196403
GAMG:  Solving for Phi, Initial residual = 6.38689e-13, Final residual = 6.38689e-13, No Iterations 0
Iteration = 235 PABe = 0.0288635
Time = 236
Diagonal goes from 1.96247 to 4.89153
Sum off diagonal goes from 1.96211 to 4.88931
Non-dominance goes from -0.000700626 to 0.00196403
GAMG:  Solving for Phi, Initial residual = 6.38689e-13, Final residual = 6.38689e-13, No Iterations 0
Iteration = 236 PABe = 0.0288635
Time = 237
Diagonal goes from 1.96247 to 4.89153
Sum off diagonal goes from 1.96211 to 4.88931
Non-dominance goes from -0.000700626 to 0.00196403
GAMG:  Solving for Phi, Initial residual = 6.38689e-13, Final residual = 6.38689e-13, No Iterations 0
Iteration = 237 PABe = 0.0288635
Time = 238
Diagonal goes from 1.96247 to 4.89153
Sum off diagonal goes from 1.96211 to 4.88931
Non-dominance goes from -0.000700626 to 0.00196403
GAMG:  Solving for Phi, Initial residual = 6.38689e-13, Final residual = 6.38689e-13, No Iterations 0
Iteration = 238 PABe = 0.0288635
Time = 239
Diagonal goes from 1.96247 to 4.89153
Sum off diagonal goes from 1.96211 to 4.88931
Non-dominance goes from -0.000700626 to 0.00196403
GAMG:  Solving for Phi, Initial residual = 6.38689e-13, Final residual = 6.38689e-13, No Iterations 0
Iteration = 239 PABe = 0.0288635
Time = 240
Diagonal goes from 1.96247 to 4.89153
Sum off diagonal goes from 1.96211 to 4.88931
Non-dominance goes from -0.000700626 to 0.00196403
GAMG:  Solving for Phi, Initial residual = 6.38689e-13, Final residual = 6.38689e-13, No Iterations 0
Iteration = 240 PABe = 0.0288635
Time = 241
Diagonal goes from 1.96247 to 4.89153
Sum off diagonal goes from 1.96211 to 4.88931
Non-dominance goes from -0.000700626 to 0.00196403
GAMG:  Solving for Phi, Initial residual = 6.38689e-13, Final residual = 6.38689e-13, No Iterations 0
Iteration = 241 PABe = 0.0288635
Time = 242
Diagonal goes from 1.96247 to 4.89153
Sum off diagonal goes from 1.96211 to 4.88931
Non-dominance goes from -0.000700626 to 0.00196403
GAMG:  Solving for Phi, Initial residual = 6.38689e-13, Final residual = 6.38689e-13, No Iterations 0
Iteration = 242 PABe = 0.0288635
Time = 243
Diagonal goes from 1.96247 to 4.89153
Sum off diagonal goes from 1.96211 to 4.88931
Non-dominance goes from -0.000700626 to 0.00196403
GAMG:  Solving for Phi, Initial residual = 6.38689e-13, Final residual = 6.38689e-13, No Iterations 0
Iteration = 243 PABe = 0.0288635
Time = 244
Diagonal goes from 1.96247 to 4.89153
Sum off diagonal goes from 1.96211 to 4.88931
Non-dominance goes from -0.000700626 to 0.00196403
GAMG:  Solving for Phi, Initial residual = 6.38689e-13, Final residual = 6.38689e-13, No Iterations 0
Iteration = 244 PABe = 0.0288635
Time = 245
Diagonal goes from 1.96247 to 4.89153
Sum off diagonal goes from 1.96211 to 4.88931
Non-dominance goes from -0.000700626 to 0.00196403
GAMG:  Solving for Phi, Initial residual = 6.38689e-13, Final residual = 6.38689e-13, No Iterations 0
Iteration = 245 PABe = 0.0288635
Time = 246
Diagonal goes from 1.96247 to 4.89153
Sum off diagonal goes from 1.96211 to 4.88931
Non-dominance goes from -0.000700626 to 0.00196403
GAMG:  Solving for Phi, Initial residual = 6.38689e-13, Final residual = 6.38689e-13, No Iterations 0
Iteration = 246 PABe = 0.0288635
Time = 247
Diagonal goes from 1.96247 to 4.89153
Sum off diagonal goes from 1.96211 to 4.88931
Non-dominance goes from -0.000700626 to 0.00196403
GAMG:  Solving for Phi, Initial residual = 6.38689e-13, Final residual = 6.38689e-13, No Iterations 0
Iteration = 247 PABe = 0.0288635
Time = 248
Diagonal goes from 1.96247 to 4.89153
Sum off diagonal goes from 1.96211 to 4.88931
Non-dominance goes from -0.000700626 to 0.00196403
GAMG:  Solving for Phi, Initial residual = 6.38689e-13, Final residual = 6.38689e-13, No Iterations 0
Iteration = 248 PABe = 0.0288635
Time = 249
Diagonal goes from 1.96247 to 4.89153
Sum off diagonal goes from 1.96211 to 4.88931
Non-dominance goes from -0.000700626 to 0.00196403
GAMG:  Solving for Phi, Initial residual = 6.38689e-13, Final residual = 6.38689e-13, No Iterations 0
Iteration = 249 PABe = 0.0288635
Time = 250
Diagonal goes from 1.96247 to 4.89153
Sum off diagonal goes from 1.96211 to 4.88931
Non-dominance goes from -0.000700626 to 0.00196403
GAMG:  Solving for Phi, Initial residual = 6.38689e-13, Final residual = 6.38689e-13, No Iterations 0
Iteration = 250 PABe = 0.0288635
Time = 251
Diagonal goes from 1.96247 to 4.89153
Sum off diagonal goes from 1.96211 to 4.88931
Non-dominance goes from -0.000700626 to 0.00196403
GAMG:  Solving for Phi, Initial residual = 6.38689e-13, Final residual = 6.38689e-13, No Iterations 0
Iteration = 251 PABe = 0.0288635
Time = 252
Diagonal goes from 1.96247 to 4.89153
Sum off diagonal goes from 1.96211 to 4.88931
Non-dominance goes from -0.000700626 to 0.00196403
GAMG:  Solving for Phi, Initial residual = 6.38689e-13, Final residual = 6.38689e-13, No Iterations 0
Iteration = 252 PABe = 0.0288635
Time = 253
Diagonal goes from 1.96247 to 4.89153
Sum off diagonal goes from 1.96211 to 4.88931
Non-dominance goes from -0.000700626 to 0.00196403
GAMG:  Solving for Phi, Initial residual = 6.38689e-13, Final residual = 6.38689e-13, No Iterations 0
Iteration = 253 PABe = 0.0288635
Time = 254
Diagonal goes from 1.96247 to 4.89153
Sum off diagonal goes from 1.96211 to 4.88931
Non-dominance goes from -0.000700626 to 0.00196403
GAMG:  Solving for Phi, Initial residual = 6.38689e-13, Final residual = 6.38689e-13, No Iterations 0
Iteration = 254 PABe = 0.0288635
Time = 255
Diagonal goes from 1.96247 to 4.89153
Sum off diagonal goes from 1.96211 to 4.88931
Non-dominance goes from -0.000700626 to 0.00196403
GAMG:  Solving for Phi, Initial residual = 6.38689e-13, Final residual = 6.38689e-13, No Iterations 0
Iteration = 255 PABe = 0.0288635
Time = 256
Diagonal goes from 1.96247 to 4.89153
Sum off diagonal goes from 1.96211 to 4.88931
Non-dominance goes from -0.000700626 to 0.00196403
GAMG:  Solving for Phi, Initial residual = 6.38689e-13, Final residual = 6.38689e-13, No Iterations 0
Iteration = 256 PABe = 0.0288635
Time = 257
Diagonal goes from 1.96247 to 4.89153
Sum off diagonal goes from 1.96211 to 4.88931
Non-dominance goes from -0.000700626 to 0.00196403
GAMG:  Solving for Phi, Initial residual = 6.38689e-13, Final residual = 6.38689e-13, No Iterations 0
Iteration = 257 PABe = 0.0288635
Time = 258
Diagonal goes from 1.96247 to 4.89153
Sum off diagonal goes from 1.96211 to 4.88931
Non-dominance goes from -0.000700626 to 0.00196403
GAMG:  Solving for Phi, Initial residual = 6.38689e-13, Final residual = 6.38689e-13, No Iterations 0
Iteration = 258 PABe = 0.0288635
Time = 259
Diagonal goes from 1.96247 to 4.89153
Sum off diagonal goes from 1.96211 to 4.88931
Non-dominance goes from -0.000700626 to 0.00196403
GAMG:  Solving for Phi, Initial residual = 6.38689e-13, Final residual = 6.38689e-13, No Iterations 0
Iteration = 259 PABe = 0.0288635
Time = 260
Diagonal goes from 1.96247 to 4.89153
Sum off diagonal goes from 1.96211 to 4.88931
Non-dominance goes from -0.000700626 to 0.00196403
GAMG:  Solving for Phi, Initial residual = 6.38689e-13, Final residual = 6.38689e-13, No Iterations 0
Iteration = 260 PABe = 0.0288635
Time = 261
Diagonal goes from 1.96247 to 4.89153
Sum off diagonal goes from 1.96211 to 4.88931
Non-dominance goes from -0.000700626 to 0.00196403
GAMG:  Solving for Phi, Initial residual = 6.38689e-13, Final residual = 6.38689e-13, No Iterations 0
Iteration = 261 PABe = 0.0288635
Time = 262
Diagonal goes from 1.96247 to 4.89153
Sum off diagonal goes from 1.96211 to 4.88931
Non-dominance goes from -0.000700626 to 0.00196403
GAMG:  Solving for Phi, Initial residual = 6.38689e-13, Final residual = 6.38689e-13, No Iterations 0
Iteration = 262 PABe = 0.0288635
Time = 263
Diagonal goes from 1.96247 to 4.89153
Sum off diagonal goes from 1.96211 to 4.88931
Non-dominance goes from -0.000700626 to 0.00196403
GAMG:  Solving for Phi, Initial residual = 6.38689e-13, Final residual = 6.38689e-13, No Iterations 0
Iteration = 263 PABe = 0.0288635
Time = 264
Diagonal goes from 1.96247 to 4.89153
Sum off diagonal goes from 1.96211 to 4.88931
Non-dominance goes from -0.000700626 to 0.00196403
GAMG:  Solving for Phi, Initial residual = 6.38689e-13, Final residual = 6.38689e-13, No Iterations 0
Iteration = 264 PABe = 0.0288635
Time = 265
Diagonal goes from 1.96247 to 4.89153
Sum off diagonal goes from 1.96211 to 4.88931
Non-dominance goes from -0.000700626 to 0.00196403
GAMG:  Solving for Phi, Initial residual = 6.38689e-13, Final residual = 6.38689e-13, No Iterations 0
Iteration = 265 PABe = 0.0288635
Time = 266
Diagonal goes from 1.96247 to 4.89153
Sum off diagonal goes from 1.96211 to 4.88931
Non-dominance goes from -0.000700626 to 0.00196403
GAMG:  Solving for Phi, Initial residual = 6.38689e-13, Final residual = 6.38689e-13, No Iterations 0
Iteration = 266 PABe = 0.0288635
Time = 267
Diagonal goes from 1.96247 to 4.89153
Sum off diagonal goes from 1.96211 to 4.88931
Non-dominance goes from -0.000700626 to 0.00196403
GAMG:  Solving for Phi, Initial residual = 6.38689e-13, Final residual = 6.38689e-13, No Iterations 0
Iteration = 267 PABe = 0.0288635
Time = 268
Diagonal goes from 1.96247 to 4.89153
Sum off diagonal goes from 1.96211 to 4.88931
Non-dominance goes from -0.000700626 to 0.00196403
GAMG:  Solving for Phi, Initial residual = 6.38689e-13, Final residual = 6.38689e-13, No Iterations 0
Iteration = 268 PABe = 0.0288635
Time = 269
Diagonal goes from 1.96247 to 4.89153
Sum off diagonal goes from 1.96211 to 4.88931
Non-dominance goes from -0.000700626 to 0.00196403
GAMG:  Solving for Phi, Initial residual = 6.38689e-13, Final residual = 6.38689e-13, No Iterations 0
Iteration = 269 PABe = 0.0288635
Time = 270
Diagonal goes from 1.96247 to 4.89153
Sum off diagonal goes from 1.96211 to 4.88931
Non-dominance goes from -0.000700626 to 0.00196403
GAMG:  Solving for Phi, Initial residual = 6.38689e-13, Final residual = 6.38689e-13, No Iterations 0
Iteration = 270 PABe = 0.0288635
Time = 271
Diagonal goes from 1.96247 to 4.89153
Sum off diagonal goes from 1.96211 to 4.88931
Non-dominance goes from -0.000700626 to 0.00196403
GAMG:  Solving for Phi, Initial residual = 6.38689e-13, Final residual = 6.38689e-13, No Iterations 0
Iteration = 271 PABe = 0.0288635
Time = 272
Diagonal goes from 1.96247 to 4.89153
Sum off diagonal goes from 1.96211 to 4.88931
Non-dominance goes from -0.000700626 to 0.00196403
GAMG:  Solving for Phi, Initial residual = 6.38689e-13, Final residual = 6.38689e-13, No Iterations 0
Iteration = 272 PABe = 0.0288635
Time = 273
Diagonal goes from 1.96247 to 4.89153
Sum off diagonal goes from 1.96211 to 4.88931
Non-dominance goes from -0.000700626 to 0.00196403
GAMG:  Solving for Phi, Initial residual = 6.38689e-13, Final residual = 6.38689e-13, No Iterations 0
Iteration = 273 PABe = 0.0288635
Time = 274
Diagonal goes from 1.96247 to 4.89153
Sum off diagonal goes from 1.96211 to 4.88931
Non-dominance goes from -0.000700626 to 0.00196403
GAMG:  Solving for Phi, Initial residual = 6.38689e-13, Final residual = 6.38689e-13, No Iterations 0
Iteration = 274 PABe = 0.0288635
Time = 275
Diagonal goes from 1.96247 to 4.89153
Sum off diagonal goes from 1.96211 to 4.88931
Non-dominance goes from -0.000700626 to 0.00196403
GAMG:  Solving for Phi, Initial residual = 6.38689e-13, Final residual = 6.38689e-13, No Iterations 0
Iteration = 275 PABe = 0.0288635
Time = 276
Diagonal goes from 1.96247 to 4.89153
Sum off diagonal goes from 1.96211 to 4.88931
Non-dominance goes from -0.000700626 to 0.00196403
GAMG:  Solving for Phi, Initial residual = 6.38689e-13, Final residual = 6.38689e-13, No Iterations 0
Iteration = 276 PABe = 0.0288635
Time = 277
Diagonal goes from 1.96247 to 4.89153
Sum off diagonal goes from 1.96211 to 4.88931
Non-dominance goes from -0.000700626 to 0.00196403
GAMG:  Solving for Phi, Initial residual = 6.38689e-13, Final residual = 6.38689e-13, No Iterations 0
Iteration = 277 PABe = 0.0288635
Time = 278
Diagonal goes from 1.96247 to 4.89153
Sum off diagonal goes from 1.96211 to 4.88931
Non-dominance goes from -0.000700626 to 0.00196403
GAMG:  Solving for Phi, Initial residual = 6.38689e-13, Final residual = 6.38689e-13, No Iterations 0
Iteration = 278 PABe = 0.0288635
Time = 279
Diagonal goes from 1.96247 to 4.89153
Sum off diagonal goes from 1.96211 to 4.88931
Non-dominance goes from -0.000700626 to 0.00196403
GAMG:  Solving for Phi, Initial residual = 6.38689e-13, Final residual = 6.38689e-13, No Iterations 0
Iteration = 279 PABe = 0.0288635
Time = 280
Diagonal goes from 1.96247 to 4.89153
Sum off diagonal goes from 1.96211 to 4.88931
Non-dominance goes from -0.000700626 to 0.00196403
GAMG:  Solving for Phi, Initial residual = 6.38689e-13, Final residual = 6.38689e-13, No Iterations 0
Iteration = 280 PABe = 0.0288635
Time = 281
Diagonal goes from 1.96247 to 4.89153
Sum off diagonal goes from 1.96211 to 4.88931
Non-dominance goes from -0.000700626 to 0.00196403
[...]
Iteration = 929 PABe = 0.0288635
Time = 930
Diagonal goes from 1.96247 to 4.89153
Sum off diagonal goes from 1.96211 to 4.88931
Non-dominance goes from -0.000700626 to 0.00196403
GAMG:  Solving for Phi, Initial residual = 6.38689e-13, Final residual = 6.38689e-13, No Iterations 0
Iteration = 930 PABe = 0.0288635
Time = 931
Diagonal goes from 1.96247 to 4.89153
Sum off diagonal goes from 1.96211 to 4.88931
Non-dominance goes from -0.000700626 to 0.00196403
GAMG:  Solving for Phi, Initial residual = 6.38689e-13, Final residual = 6.38689e-13, No Iterations 0
Iteration = 931 PABe = 0.0288635
Time = 932
Diagonal goes from 1.96247 to 4.89153
Sum off diagonal goes from 1.96211 to 4.88931
Non-dominance goes from -0.000700626 to 0.00196403
GAMG:  Solving for Phi, Initial residual = 6.38689e-13, Final residual = 6.38689e-13, No Iterations 0
Iteration = 932 PABe = 0.0288635
Time = 933
Diagonal goes from 1.96247 to 4.89153
Sum off diagonal goes from 1.96211 to 4.88931
Non-dominance goes from -0.000700626 to 0.00196403
GAMG:  Solving for Phi, Initial residual = 6.38689e-13, Final residual = 6.38689e-13, No Iterations 0
Iteration = 933 PABe = 0.0288635
Time = 934
Diagonal goes from 1.96247 to 4.89153
Sum off diagonal goes from 1.96211 to 4.88931
Non-dominance goes from -0.000700626 to 0.00196403
GAMG:  Solving for Phi, Initial residual = 6.38689e-13, Final residual = 6.38689e-13, No Iterations 0
Iteration = 934 PABe = 0.0288635
Time = 935
Diagonal goes from 1.96247 to 4.89153
Sum off diagonal goes from 1.96211 to 4.88931
Non-dominance goes from -0.000700626 to 0.00196403
GAMG:  Solving for Phi, Initial residual = 6.38689e-13, Final residual = 6.38689e-13, No Iterations 0
Iteration = 935 PABe = 0.0288635
Time = 936
Diagonal goes from 1.96247 to 4.89153
Sum off diagonal goes from 1.96211 to 4.88931
Non-dominance goes from -0.000700626 to 0.00196403
GAMG:  Solving for Phi, Initial residual = 6.38689e-13, Final residual = 6.38689e-13, No Iterations 0
Iteration = 936 PABe = 0.0288635
Time = 937
Diagonal goes from 1.96247 to 4.89153
Sum off diagonal goes from 1.96211 to 4.88931
Non-dominance goes from -0.000700626 to 0.00196403
GAMG:  Solving for Phi, Initial residual = 6.38689e-13, Final residual = 6.38689e-13, No Iterations 0
Iteration = 937 PABe = 0.0288635
Time = 938
Diagonal goes from 1.96247 to 4.89153
Sum off diagonal goes from 1.96211 to 4.88931
Non-dominance goes from -0.000700626 to 0.00196403
GAMG:  Solving for Phi, Initial residual = 6.38689e-13, Final residual = 6.38689e-13, No Iterations 0
Iteration = 938 PABe = 0.0288635
Time = 939
Diagonal goes from 1.96247 to 4.89153
Sum off diagonal goes from 1.96211 to 4.88931
Non-dominance goes from -0.000700626 to 0.00196403
GAMG:  Solving for Phi, Initial residual = 6.38689e-13, Final residual = 6.38689e-13, No Iterations 0
Iteration = 939 PABe = 0.0288635
Time = 940
Diagonal goes from 1.96247 to 4.89153
Sum off diagonal goes from 1.96211 to 4.88931
Non-dominance goes from -0.000700626 to 0.00196403
GAMG:  Solving for Phi, Initial residual = 6.38689e-13, Final residual = 6.38689e-13, No Iterations 0
Iteration = 940 PABe = 0.0288635
Time = 941
Diagonal goes from 1.96247 to 4.89153
Sum off diagonal goes from 1.96211 to 4.88931
Non-dominance goes from -0.000700626 to 0.00196403
GAMG:  Solving for Phi, Initial residual = 6.38689e-13, Final residual = 6.38689e-13, No Iterations 0
Iteration = 941 PABe = 0.0288635
Time = 942
Diagonal goes from 1.96247 to 4.89153
Sum off diagonal goes from 1.96211 to 4.88931
Non-dominance goes from -0.000700626 to 0.00196403
GAMG:  Solving for Phi, Initial residual = 6.38689e-13, Final residual = 6.38689e-13, No Iterations 0
Iteration = 942 PABe = 0.0288635
Time = 943
Diagonal goes from 1.96247 to 4.89153
Sum off diagonal goes from 1.96211 to 4.88931
Non-dominance goes from -0.000700626 to 0.00196403
GAMG:  Solving for Phi, Initial residual = 6.38689e-13, Final residual = 6.38689e-13, No Iterations 0
Iteration = 943 PABe = 0.0288635
Time = 944
Diagonal goes from 1.96247 to 4.89153
Sum off diagonal goes from 1.96211 to 4.88931
Non-dominance goes from -0.000700626 to 0.00196403
GAMG:  Solving for Phi, Initial residual = 6.38689e-13, Final residual = 6.38689e-13, No Iterations 0
Iteration = 944 PABe = 0.0288635
Time = 945
Diagonal goes from 1.96247 to 4.89153
Sum off diagonal goes from 1.96211 to 4.88931
Non-dominance goes from -0.000700626 to 0.00196403
GAMG:  Solving for Phi, Initial residual = 6.38689e-13, Final residual = 6.38689e-13, No Iterations 0
Iteration = 945 PABe = 0.0288635
Time = 946
Diagonal goes from 1.96247 to 4.89153
Sum off diagonal goes from 1.96211 to 4.88931
Non-dominance goes from -0.000700626 to 0.00196403
GAMG:  Solving for Phi, Initial residual = 6.38689e-13, Final residual = 6.38689e-13, No Iterations 0
Iteration = 946 PABe = 0.0288635
Time = 947
Diagonal goes from 1.96247 to 4.89153
Sum off diagonal goes from 1.96211 to 4.88931
Non-dominance goes from -0.000700626 to 0.00196403
GAMG:  Solving for Phi, Initial residual = 6.38689e-13, Final residual = 6.38689e-13, No Iterations 0
Iteration = 947 PABe = 0.0288635
Time = 948
Diagonal goes from 1.96247 to 4.89153
Sum off diagonal goes from 1.96211 to 4.88931
Non-dominance goes from -0.000700626 to 0.00196403
GAMG:  Solving for Phi, Initial residual = 6.38689e-13, Final residual = 6.38689e-13, No Iterations 0
Iteration = 948 PABe = 0.0288635
Time = 949
Diagonal goes from 1.96247 to 4.89153
Sum off diagonal goes from 1.96211 to 4.88931
Non-dominance goes from -0.000700626 to 0.00196403
GAMG:  Solving for Phi, Initial residual = 6.38689e-13, Final residual = 6.38689e-13, No Iterations 0
Iteration = 949 PABe = 0.0288635
Time = 950
Diagonal goes from 1.96247 to 4.89153
Sum off diagonal goes from 1.96211 to 4.88931
Non-dominance goes from -0.000700626 to 0.00196403
GAMG:  Solving for Phi, Initial residual = 6.38689e-13, Final residual = 6.38689e-13, No Iterations 0
Iteration = 950 PABe = 0.0288635
Time = 951
Diagonal goes from 1.96247 to 4.89153
Sum off diagonal goes from 1.96211 to 4.88931
Non-dominance goes from -0.000700626 to 0.00196403
GAMG:  Solving for Phi, Initial residual = 6.38689e-13, Final residual = 6.38689e-13, No Iterations 0
Iteration = 951 PABe = 0.0288635
Time = 952
Diagonal goes from 1.96247 to 4.89153
Sum off diagonal goes from 1.96211 to 4.88931
Non-dominance goes from -0.000700626 to 0.00196403
GAMG:  Solving for Phi, Initial residual = 6.38689e-13, Final residual = 6.38689e-13, No Iterations 0
Iteration = 952 PABe = 0.0288635
Time = 953
Diagonal goes from 1.96247 to 4.89153
Sum off diagonal goes from 1.96211 to 4.88931
Non-dominance goes from -0.000700626 to 0.00196403
GAMG:  Solving for Phi, Initial residual = 6.38689e-13, Final residual = 6.38689e-13, No Iterations 0
Iteration = 953 PABe = 0.0288635
Time = 954
Diagonal goes from 1.96247 to 4.89153
Sum off diagonal goes from 1.96211 to 4.88931
Non-dominance goes from -0.000700626 to 0.00196403
GAMG:  Solving for Phi, Initial residual = 6.38689e-13, Final residual = 6.38689e-13, No Iterations 0
Iteration = 954 PABe = 0.0288635
Time = 955
Diagonal goes from 1.96247 to 4.89153
Sum off diagonal goes from 1.96211 to 4.88931
Non-dominance goes from -0.000700626 to 0.00196403
GAMG:  Solving for Phi, Initial residual = 6.38689e-13, Final residual = 6.38689e-13, No Iterations 0
Iteration = 955 PABe = 0.0288635
Time = 956
Diagonal goes from 1.96247 to 4.89153
Sum off diagonal goes from 1.96211 to 4.88931
Non-dominance goes from -0.000700626 to 0.00196403
GAMG:  Solving for Phi, Initial residual = 6.38689e-13, Final residual = 6.38689e-13, No Iterations 0
Iteration = 956 PABe = 0.0288635
Time = 957
Diagonal goes from 1.96247 to 4.89153
Sum off diagonal goes from 1.96211 to 4.88931
Non-dominance goes from -0.000700626 to 0.00196403
GAMG:  Solving for Phi, Initial residual = 6.38689e-13, Final residual = 6.38689e-13, No Iterations 0
Iteration = 957 PABe = 0.0288635
Time = 958
Diagonal goes from 1.96247 to 4.89153
Sum off diagonal goes from 1.96211 to 4.88931
Non-dominance goes from -0.000700626 to 0.00196403
GAMG:  Solving for Phi, Initial residual = 6.38689e-13, Final residual = 6.38689e-13, No Iterations 0
Iteration = 958 PABe = 0.0288635
Time = 959
Diagonal goes from 1.96247 to 4.89153
Sum off diagonal goes from 1.96211 to 4.88931
Non-dominance goes from -0.000700626 to 0.00196403
GAMG:  Solving for Phi, Initial residual = 6.38689e-13, Final residual = 6.38689e-13, No Iterations 0
Iteration = 959 PABe = 0.0288635
Time = 960
Diagonal goes from 1.96247 to 4.89153
Sum off diagonal goes from 1.96211 to 4.88931
Non-dominance goes from -0.000700626 to 0.00196403
GAMG:  Solving for Phi, Initial residual = 6.38689e-13, Final residual = 6.38689e-13, No Iterations 0
Iteration = 960 PABe = 0.0288635
Time = 961
Diagonal goes from 1.96247 to 4.89153
Sum off diagonal goes from 1.96211 to 4.88931
Non-dominance goes from -0.000700626 to 0.00196403
GAMG:  Solving for Phi, Initial residual = 6.38689e-13, Final residual = 6.38689e-13, No Iterations 0
Iteration = 961 PABe = 0.0288635
Time = 962
Diagonal goes from 1.96247 to 4.89153
Sum off diagonal goes from 1.96211 to 4.88931
Non-dominance goes from -0.000700626 to 0.00196403
GAMG:  Solving for Phi, Initial residual = 6.38689e-13, Final residual = 6.38689e-13, No Iterations 0
Iteration = 962 PABe = 0.0288635
Time = 963
Diagonal goes from 1.96247 to 4.89153
Sum off diagonal goes from 1.96211 to 4.88931
Non-dominance goes from -0.000700626 to 0.00196403
GAMG:  Solving for Phi, Initial residual = 6.38689e-13, Final residual = 6.38689e-13, No Iterations 0
Iteration = 963 PABe = 0.0288635
Time = 964
Diagonal goes from 1.96247 to 4.89153
Sum off diagonal goes from 1.96211 to 4.88931
Non-dominance goes from -0.000700626 to 0.00196403
GAMG:  Solving for Phi, Initial residual = 6.38689e-13, Final residual = 6.38689e-13, No Iterations 0
Iteration = 964 PABe = 0.0288635
Time = 965
Diagonal goes from 1.96247 to 4.89153
Sum off diagonal goes from 1.96211 to 4.88931
Non-dominance goes from -0.000700626 to 0.00196403
GAMG:  Solving for Phi, Initial residual = 6.38689e-13, Final residual = 6.38689e-13, No Iterations 0
Iteration = 965 PABe = 0.0288635
Time = 966
Diagonal goes from 1.96247 to 4.89153
Sum off diagonal goes from 1.96211 to 4.88931
Non-dominance goes from -0.000700626 to 0.00196403
GAMG:  Solving for Phi, Initial residual = 6.38689e-13, Final residual = 6.38689e-13, No Iterations 0
Iteration = 966 PABe = 0.0288635
Time = 967
Diagonal goes from 1.96247 to 4.89153
Sum off diagonal goes from 1.96211 to 4.88931
Non-dominance goes from -0.000700626 to 0.00196403
GAMG:  Solving for Phi, Initial residual = 6.38689e-13, Final residual = 6.38689e-13, No Iterations 0
Iteration = 967 PABe = 0.0288635
Time = 968
Diagonal goes from 1.96247 to 4.89153
Sum off diagonal goes from 1.96211 to 4.88931
Non-dominance goes from -0.000700626 to 0.00196403
GAMG:  Solving for Phi, Initial residual = 6.38689e-13, Final residual = 6.38689e-13, No Iterations 0
Iteration = 968 PABe = 0.0288635
Time = 969
Diagonal goes from 1.96247 to 4.89153
Sum off diagonal goes from 1.96211 to 4.88931
Non-dominance goes from -0.000700626 to 0.00196403
GAMG:  Solving for Phi, Initial residual = 6.38689e-13, Final residual = 6.38689e-13, No Iterations 0
Iteration = 969 PABe = 0.0288635
Time = 970
Diagonal goes from 1.96247 to 4.89153
Sum off diagonal goes from 1.96211 to 4.88931
Non-dominance goes from -0.000700626 to 0.00196403
GAMG:  Solving for Phi, Initial residual = 6.38689e-13, Final residual = 6.38689e-13, No Iterations 0
Iteration = 970 PABe = 0.0288635
Time = 971
Diagonal goes from 1.96247 to 4.89153
Sum off diagonal goes from 1.96211 to 4.88931
Non-dominance goes from -0.000700626 to 0.00196403
GAMG:  Solving for Phi, Initial residual = 6.38689e-13, Final residual = 6.38689e-13, No Iterations 0
Iteration = 971 PABe = 0.0288635
Time = 972
Diagonal goes from 1.96247 to 4.89153
Sum off diagonal goes from 1.96211 to 4.88931
Non-dominance goes from -0.000700626 to 0.00196403
GAMG:  Solving for Phi, Initial residual = 6.38689e-13, Final residual = 6.38689e-13, No Iterations 0
Iteration = 972 PABe = 0.0288635
Time = 973
Diagonal goes from 1.96247 to 4.89153
Sum off diagonal goes from 1.96211 to 4.88931
Non-dominance goes from -0.000700626 to 0.00196403
GAMG:  Solving for Phi, Initial residual = 6.38689e-13, Final residual = 6.38689e-13, No Iterations 0
Iteration = 973 PABe = 0.0288635
Time = 974
Diagonal goes from 1.96247 to 4.89153
Sum off diagonal goes from 1.96211 to 4.88931
Non-dominance goes from -0.000700626 to 0.00196403
GAMG:  Solving for Phi, Initial residual = 6.38689e-13, Final residual = 6.38689e-13, No Iterations 0
Iteration = 974 PABe = 0.0288635
Time = 975
Diagonal goes from 1.96247 to 4.89153
Sum off diagonal goes from 1.96211 to 4.88931
Non-dominance goes from -0.000700626 to 0.00196403
GAMG:  Solving for Phi, Initial residual = 6.38689e-13, Final residual = 6.38689e-13, No Iterations 0
Iteration = 975 PABe = 0.0288635
Time = 976
Diagonal goes from 1.96247 to 4.89153
Sum off diagonal goes from 1.96211 to 4.88931
Non-dominance goes from -0.000700626 to 0.00196403
GAMG:  Solving for Phi, Initial residual = 6.38689e-13, Final residual = 6.38689e-13, No Iterations 0
Iteration = 976 PABe = 0.0288635
Time = 977
Diagonal goes from 1.96247 to 4.89153
Sum off diagonal goes from 1.96211 to 4.88931
Non-dominance goes from -0.000700626 to 0.00196403
GAMG:  Solving for Phi, Initial residual = 6.38689e-13, Final residual = 6.38689e-13, No Iterations 0
Iteration = 977 PABe = 0.0288635
Time = 978
Diagonal goes from 1.96247 to 4.89153
Sum off diagonal goes from 1.96211 to 4.88931
Non-dominance goes from -0.000700626 to 0.00196403
GAMG:  Solving for Phi, Initial residual = 6.38689e-13, Final residual = 6.38689e-13, No Iterations 0
Iteration = 978 PABe = 0.0288635
Time = 979
Diagonal goes from 1.96247 to 4.89153
Sum off diagonal goes from 1.96211 to 4.88931
Non-dominance goes from -0.000700626 to 0.00196403
GAMG:  Solving for Phi, Initial residual = 6.38689e-13, Final residual = 6.38689e-13, No Iterations 0
Iteration = 979 PABe = 0.0288635
Time = 980
Diagonal goes from 1.96247 to 4.89153
Sum off diagonal goes from 1.96211 to 4.88931
Non-dominance goes from -0.000700626 to 0.00196403
GAMG:  Solving for Phi, Initial residual = 6.38689e-13, Final residual = 6.38689e-13, No Iterations 0
Iteration = 980 PABe = 0.0288635
Time = 981
Diagonal goes from 1.96247 to 4.89153
Sum off diagonal goes from 1.96211 to 4.88931
Non-dominance goes from -0.000700626 to 0.00196403
GAMG:  Solving for Phi, Initial residual = 6.38689e-13, Final residual = 6.38689e-13, No Iterations 0
Iteration = 981 PABe = 0.0288635
Time = 982
Diagonal goes from 1.96247 to 4.89153
Sum off diagonal goes from 1.96211 to 4.88931
Non-dominance goes from -0.000700626 to 0.00196403
GAMG:  Solving for Phi, Initial residual = 6.38689e-13, Final residual = 6.38689e-13, No Iterations 0
Iteration = 982 PABe = 0.0288635
Time = 983
Diagonal goes from 1.96247 to 4.89153
Sum off diagonal goes from 1.96211 to 4.88931
Non-dominance goes from -0.000700626 to 0.00196403
GAMG:  Solving for Phi, Initial residual = 6.38689e-13, Final residual = 6.38689e-13, No Iterations 0
Iteration = 983 PABe = 0.0288635
Time = 984
Diagonal goes from 1.96247 to 4.89153
Sum off diagonal goes from 1.96211 to 4.88931
Non-dominance goes from -0.000700626 to 0.00196403
GAMG:  Solving for Phi, Initial residual = 6.38689e-13, Final residual = 6.38689e-13, No Iterations 0
Iteration = 984 PABe = 0.0288635
Time = 985
Diagonal goes from 1.96247 to 4.89153
Sum off diagonal goes from 1.96211 to 4.88931
Non-dominance goes from -0.000700626 to 0.00196403
GAMG:  Solving for Phi, Initial residual = 6.38689e-13, Final residual = 6.38689e-13, No Iterations 0
Iteration = 985 PABe = 0.0288635
Time = 986
Diagonal goes from 1.96247 to 4.89153
Sum off diagonal goes from 1.96211 to 4.88931
Non-dominance goes from -0.000700626 to 0.00196403
GAMG:  Solving for Phi, Initial residual = 6.38689e-13, Final residual = 6.38689e-13, No Iterations 0
Iteration = 986 PABe = 0.0288635
Time = 987
Diagonal goes from 1.96247 to 4.89153
Sum off diagonal goes from 1.96211 to 4.88931
Non-dominance goes from -0.000700626 to 0.00196403
GAMG:  Solving for Phi, Initial residual = 6.38689e-13, Final residual = 6.38689e-13, No Iterations 0
Iteration = 987 PABe = 0.0288635
Time = 988
Diagonal goes from 1.96247 to 4.89153
Sum off diagonal goes from 1.96211 to 4.88931
Non-dominance goes from -0.000700626 to 0.00196403
GAMG:  Solving for Phi, Initial residual = 6.38689e-13, Final residual = 6.38689e-13, No Iterations 0
Iteration = 988 PABe = 0.0288635
Time = 989
Diagonal goes from 1.96247 to 4.89153
Sum off diagonal goes from 1.96211 to 4.88931
Non-dominance goes from -0.000700626 to 0.00196403
GAMG:  Solving for Phi, Initial residual = 6.38689e-13, Final residual = 6.38689e-13, No Iterations 0
Iteration = 989 PABe = 0.0288635
Time = 990
Diagonal goes from 1.96247 to 4.89153
Sum off diagonal goes from 1.96211 to 4.88931
Non-dominance goes from -0.000700626 to 0.00196403
GAMG:  Solving for Phi, Initial residual = 6.38689e-13, Final residual = 6.38689e-13, No Iterations 0
Iteration = 990 PABe = 0.0288635
Time = 991
Diagonal goes from 1.96247 to 4.89153
Sum off diagonal goes from 1.96211 to 4.88931
Non-dominance goes from -0.000700626 to 0.00196403
GAMG:  Solving for Phi, Initial residual = 6.38689e-13, Final residual = 6.38689e-13, No Iterations 0
Iteration = 991 PABe = 0.0288635
Time = 992
Diagonal goes from 1.96247 to 4.89153
Sum off diagonal goes from 1.96211 to 4.88931
Non-dominance goes from -0.000700626 to 0.00196403
GAMG:  Solving for Phi, Initial residual = 6.38689e-13, Final residual = 6.38689e-13, No Iterations 0
Iteration = 992 PABe = 0.0288635
Time = 993
Diagonal goes from 1.96247 to 4.89153
Sum off diagonal goes from 1.96211 to 4.88931
Non-dominance goes from -0.000700626 to 0.00196403
GAMG:  Solving for Phi, Initial residual = 6.38689e-13, Final residual = 6.38689e-13, No Iterations 0
Iteration = 993 PABe = 0.0288635
Time = 994
Diagonal goes from 1.96247 to 4.89153
Sum off diagonal goes from 1.96211 to 4.88931
Non-dominance goes from -0.000700626 to 0.00196403
GAMG:  Solving for Phi, Initial residual = 6.38689e-13, Final residual = 6.38689e-13, No Iterations 0
Iteration = 994 PABe = 0.0288635
Time = 995
Diagonal goes from 1.96247 to 4.89153
Sum off diagonal goes from 1.96211 to 4.88931
Non-dominance goes from -0.000700626 to 0.00196403
GAMG:  Solving for Phi, Initial residual = 6.38689e-13, Final residual = 6.38689e-13, No Iterations 0
Iteration = 995 PABe = 0.0288635
Time = 996
Diagonal goes from 1.96247 to 4.89153
Sum off diagonal goes from 1.96211 to 4.88931
Non-dominance goes from -0.000700626 to 0.00196403
GAMG:  Solving for Phi, Initial residual = 6.38689e-13, Final residual = 6.38689e-13, No Iterations 0
Iteration = 996 PABe = 0.0288635
Time = 997
Diagonal goes from 1.96247 to 4.89153
Sum off diagonal goes from 1.96211 to 4.88931
Non-dominance goes from -0.000700626 to 0.00196403
GAMG:  Solving for Phi, Initial residual = 6.38689e-13, Final residual = 6.38689e-13, No Iterations 0
Iteration = 997 PABe = 0.0288635
Time = 998
Diagonal goes from 1.96247 to 4.89153
Sum off diagonal goes from 1.96211 to 4.88931
Non-dominance goes from -0.000700626 to 0.00196403
GAMG:  Solving for Phi, Initial residual = 6.38689e-13, Final residual = 6.38689e-13, No Iterations 0
Iteration = 998 PABe = 0.0288635
Time = 999
Diagonal goes from 1.96247 to 4.89153
Sum off diagonal goes from 1.96211 to 4.88931
Non-dominance goes from -0.000700626 to 0.00196403
GAMG:  Solving for Phi, Initial residual = 6.38689e-13, Final residual = 6.38689e-13, No Iterations 0
Iteration = 999 PABe = 0.0288635
Time = 1000
Diagonal goes from 1.96247 to 4.89153
Sum off diagonal goes from 1.96211 to 4.88931
Non-dominance goes from -0.000700626 to 0.00196403
GAMG:  Solving for Phi, Initial residual = 6.38689e-13, Final residual = 6.38689e-13, No Iterations 0
Iteration = 1000 PABe = 0.0288635
End

