/*---------------------------------------------------------------------------*\
| =========                 |                                                 |
| \\      /  F ield         | OpenFOAM: The Open Source CFD Toolbox           |
|  \\    /   O peration     | Version:  2.3.0                                 |
|   \\  /    A nd           | Web:      www.OpenFOAM.org                      |
|    \\/     M anipulation  |                                                 |
\*---------------------------------------------------------------------------*/
Build  : 2.3.0-f5222ca19ce6
Exec   : exnerFoamH
Date   : Mar 14 2015
Time   : 02:36:33
Host   : "homer"
PID    : 7313
Case   : /home/AtmosFOAM/OpenFOAM/AtmosFOAM-2.3.0/run/gravityWavesBTF
nProcs : 1
sigFpe : Enabling floating point exception trapping (FOAM_SIGFPE).
fileModificationChecking : Monitoring run-time modified files using timeStampMaster
allowSystemOperations : Disallowing user-supplied system call operations

// * * * * * * * * * * * * * * * * * * * * * * * * * * * * * * * * * * * * * //
Create time

Create mesh for time = 0

Making the boundary faces orthogonal

Reading environmentalProperties
Reading thermophysical properties

Cp = 1000 speedSound = speedSound [0 1 -1 0 0 0 0] 341.061 kappa = kappa [0 0 0 0 0 0 0] 0.287698 R = 287.698 RR = 8314.47
Reading field Uf

Reading field Exner

Reading field theta

Maximum sponge value = 2.39549
Creating field rho

Calculating face flux field U

Calculating V mass circulation field

Initialising total energy file energy.dat


Starting time loop

Time = 20

Courant Number mean: 0.400831 max: 0.521887 max Ndt = 0.200098
diagonal:  Solving for rho, Initial residual = 0, Final residual = 0, No Iterations 0
diagonal:  Solving for theta, Initial residual = 0, Final residual = 0, No Iterations 0
DICPCG:  Solving for Exner, Initial residual = 6.06135e-05, Final residual = 5.22588e-09, No Iterations 54
diagonal:  Solving for rho, Initial residual = 0, Final residual = 0, No Iterations 0
diagonal:  Solving for theta, Initial residual = 0, Final residual = 0, No Iterations 0
DICPCG:  Solving for Exner, Initial residual = 1.87261e-05, Final residual = 8.93849e-11, No Iterations 68
diagonal:  Solving for rho, Initial residual = 0, Final residual = 0, No Iterations 0
diagonal:  Solving for theta, Initial residual = 0, Final residual = 0, No Iterations 0
time step continuity errors : sum local = 6.92361e-11, global = 2.92432e-14, cumulative = 2.92432e-14
Maximum rho difference fraction = 5.40351e-05
Heat error = 4.71223e-12, entropy error = -2.77135e-11
ExecutionTime = 8.61 s  ClockTime = 9 s

Time = 40

Courant Number mean: 0.400772 max: 0.509956 max Ndt = 0.204232
diagonal:  Solving for rho, Initial residual = 0, Final residual = 0, No Iterations 0
diagonal:  Solving for theta, Initial residual = 0, Final residual = 0, No Iterations 0
DICPCG:  Solving for Exner, Initial residual = 0.000137191, Final residual = 1.17285e-08, No Iterations 48
diagonal:  Solving for rho, Initial residual = 0, Final residual = 0, No Iterations 0
diagonal:  Solving for theta, Initial residual = 0, Final residual = 0, No Iterations 0
DICPCG:  Solving for Exner, Initial residual = 1.79566e-05, Final residual = 8.38998e-11, No Iterations 65
diagonal:  Solving for rho, Initial residual = 0, Final residual = 0, No Iterations 0
diagonal:  Solving for theta, Initial residual = 0, Final residual = 0, No Iterations 0
time step continuity errors : sum local = 9.87914e-11, global = -2.21363e-13, cumulative = -1.92119e-13
Maximum rho difference fraction = 2.73145e-05
Heat error = 2.08205e-11, entropy error = -1.81901e-11
ExecutionTime = 10.68 s  ClockTime = 11 s

Time = 60

Courant Number mean: 0.400797 max: 0.515601 max Ndt = 0.212513
diagonal:  Solving for rho, Initial residual = 0, Final residual = 0, No Iterations 0
diagonal:  Solving for theta, Initial residual = 0, Final residual = 0, No Iterations 0
DICPCG:  Solving for Exner, Initial residual = 0.000147649, Final residual = 1.326e-08, No Iterations 46
diagonal:  Solving for rho, Initial residual = 0, Final residual = 0, No Iterations 0
diagonal:  Solving for theta, Initial residual = 0, Final residual = 0, No Iterations 0
DICPCG:  Solving for Exner, Initial residual = 1.82015e-05, Final residual = 9.21936e-11, No Iterations 67
diagonal:  Solving for rho, Initial residual = 0, Final residual = 0, No Iterations 0
diagonal:  Solving for theta, Initial residual = 0, Final residual = 0, No Iterations 0
time step continuity errors : sum local = 1.11179e-10, global = -2.31167e-13, cumulative = -4.23287e-13
Maximum rho difference fraction = 2.62252e-05
Heat error = 4.30187e-11, entropy error = -3.38728e-10
ExecutionTime = 12.74 s  ClockTime = 13 s

Time = 80

Courant Number mean: 0.400861 max: 0.517913 max Ndt = 0.220548
diagonal:  Solving for rho, Initial residual = 0, Final residual = 0, No Iterations 0
diagonal:  Solving for theta, Initial residual = 0, Final residual = 0, No Iterations 0
DICPCG:  Solving for Exner, Initial residual = 0.000140822, Final residual = 1.25591e-08, No Iterations 45
diagonal:  Solving for rho, Initial residual = 0, Final residual = 0, No Iterations 0
diagonal:  Solving for theta, Initial residual = 0, Final residual = 0, No Iterations 0
DICPCG:  Solving for Exner, Initial residual = 1.66796e-05, Final residual = 9.50248e-11, No Iterations 64
diagonal:  Solving for rho, Initial residual = 0, Final residual = 0, No Iterations 0
diagonal:  Solving for theta, Initial residual = 0, Final residual = 0, No Iterations 0
time step continuity errors : sum local = 1.20485e-10, global = -2.89111e-13, cumulative = -7.12398e-13
Maximum rho difference fraction = 3.33201e-05
Heat error = 7.30244e-11, entropy error = -9.43023e-10
ExecutionTime = 14.82 s  ClockTime = 15 s

Time = 100

Courant Number mean: 0.400929 max: 0.518068 max Ndt = 0.227203
diagonal:  Solving for rho, Initial residual = 0, Final residual = 0, No Iterations 0
diagonal:  Solving for theta, Initial residual = 0, Final residual = 0, No Iterations 0
DICPCG:  Solving for Exner, Initial residual = 0.000139264, Final residual = 1.37277e-08, No Iterations 44
diagonal:  Solving for rho, Initial residual = 0, Final residual = 0, No Iterations 0
diagonal:  Solving for theta, Initial residual = 0, Final residual = 0, No Iterations 0
DICPCG:  Solving for Exner, Initial residual = 1.57752e-05, Final residual = 8.59185e-11, No Iterations 66
diagonal:  Solving for rho, Initial residual = 0, Final residual = 0, No Iterations 0
diagonal:  Solving for theta, Initial residual = 0, Final residual = 0, No Iterations 0
time step continuity errors : sum local = 1.51188e-10, global = -2.48996e-13, cumulative = -9.61393e-13
Maximum rho difference fraction = 2.78058e-05
Heat error = 1.13377e-10, entropy error = -1.46169e-09
ExecutionTime = 16.88 s  ClockTime = 17 s

Time = 120

Courant Number mean: 0.400968 max: 0.519159 max Ndt = 0.231913
diagonal:  Solving for rho, Initial residual = 0, Final residual = 0, No Iterations 0
diagonal:  Solving for theta, Initial residual = 0, Final residual = 0, No Iterations 0
DICPCG:  Solving for Exner, Initial residual = 0.00014017, Final residual = 1.3305e-08, No Iterations 44
diagonal:  Solving for rho, Initial residual = 0, Final residual = 0, No Iterations 0
diagonal:  Solving for theta, Initial residual = 0, Final residual = 0, No Iterations 0
DICPCG:  Solving for Exner, Initial residual = 1.54102e-05, Final residual = 8.44223e-11, No Iterations 65
diagonal:  Solving for rho, Initial residual = 0, Final residual = 0, No Iterations 0
diagonal:  Solving for theta, Initial residual = 0, Final residual = 0, No Iterations 0
time step continuity errors : sum local = 1.84415e-10, global = -2.78587e-13, cumulative = -1.23998e-12
Maximum rho difference fraction = 2.70055e-05
Heat error = 1.63991e-10, entropy error = -1.90746e-09
ExecutionTime = 18.94 s  ClockTime = 19 s

Time = 140

Courant Number mean: 0.400952 max: 0.522414 max Ndt = 0.234701
diagonal:  Solving for rho, Initial residual = 0, Final residual = 0, No Iterations 0
diagonal:  Solving for theta, Initial residual = 0, Final residual = 0, No Iterations 0
DICPCG:  Solving for Exner, Initial residual = 0.000139684, Final residual = 1.38478e-08, No Iterations 43
diagonal:  Solving for rho, Initial residual = 0, Final residual = 0, No Iterations 0
diagonal:  Solving for theta, Initial residual = 0, Final residual = 0, No Iterations 0
DICPCG:  Solving for Exner, Initial residual = 1.48673e-05, Final residual = 9.43985e-11, No Iterations 65
diagonal:  Solving for rho, Initial residual = 0, Final residual = 0, No Iterations 0
diagonal:  Solving for theta, Initial residual = 0, Final residual = 0, No Iterations 0
time step continuity errors : sum local = 1.53822e-10, global = -2.74541e-13, cumulative = -1.51452e-12
Maximum rho difference fraction = 7.51842e-05
Heat error = 2.2393e-10, entropy error = -2.52017e-09
ExecutionTime = 20.99 s  ClockTime = 21 s

Time = 160

Courant Number mean: 0.400954 max: 0.525512 max Ndt = 0.239646
diagonal:  Solving for rho, Initial residual = 0, Final residual = 0, No Iterations 0
diagonal:  Solving for theta, Initial residual = 0, Final residual = 0, No Iterations 0
DICPCG:  Solving for Exner, Initial residual = 0.000138646, Final residual = 1.17674e-08, No Iterations 44
diagonal:  Solving for rho, Initial residual = 0, Final residual = 0, No Iterations 0
diagonal:  Solving for theta, Initial residual = 0, Final residual = 0, No Iterations 0
DICPCG:  Solving for Exner, Initial residual = 1.37929e-05, Final residual = 9.97307e-11, No Iterations 64
diagonal:  Solving for rho, Initial residual = 0, Final residual = 0, No Iterations 0
diagonal:  Solving for theta, Initial residual = 0, Final residual = 0, No Iterations 0
time step continuity errors : sum local = 1.91812e-10, global = -2.83373e-13, cumulative = -1.79789e-12
Maximum rho difference fraction = 0.00010641
Heat error = 2.9308e-10, entropy error = -3.46817e-09
ExecutionTime = 23.06 s  ClockTime = 23 s

Time = 180

Courant Number mean: 0.401009 max: 0.52811 max Ndt = 0.242758
diagonal:  Solving for rho, Initial residual = 0, Final residual = 0, No Iterations 0
diagonal:  Solving for theta, Initial residual = 0, Final residual = 0, No Iterations 0
DICPCG:  Solving for Exner, Initial residual = 0.000136353, Final residual = 1.32011e-08, No Iterations 44
diagonal:  Solving for rho, Initial residual = 0, Final residual = 0, No Iterations 0
diagonal:  Solving for theta, Initial residual = 0, Final residual = 0, No Iterations 0
DICPCG:  Solving for Exner, Initial residual = 1.32755e-05, Final residual = 9.704e-11, No Iterations 64
diagonal:  Solving for rho, Initial residual = 0, Final residual = 0, No Iterations 0
diagonal:  Solving for theta, Initial residual = 0, Final residual = 0, No Iterations 0
time step continuity errors : sum local = 1.61878e-10, global = -3.02119e-13, cumulative = -2.10001e-12
Maximum rho difference fraction = 0.000111839
Heat error = 3.71615e-10, entropy error = -4.67588e-09
ExecutionTime = 25.11 s  ClockTime = 25 s

Time = 200

Courant Number mean: 0.401049 max: 0.528936 max Ndt = 0.243679
diagonal:  Solving for rho, Initial residual = 0, Final residual = 0, No Iterations 0
diagonal:  Solving for theta, Initial residual = 0, Final residual = 0, No Iterations 0
DICPCG:  Solving for Exner, Initial residual = 0.000137032, Final residual = 1.29829e-08, No Iterations 44
diagonal:  Solving for rho, Initial residual = 0, Final residual = 0, No Iterations 0
diagonal:  Solving for theta, Initial residual = 0, Final residual = 0, No Iterations 0
DICPCG:  Solving for Exner, Initial residual = 1.23775e-05, Final residual = 9.73353e-11, No Iterations 63
diagonal:  Solving for rho, Initial residual = 0, Final residual = 0, No Iterations 0
diagonal:  Solving for theta, Initial residual = 0, Final residual = 0, No Iterations 0
time step continuity errors : sum local = 1.67023e-10, global = -3.36159e-13, cumulative = -2.43617e-12
Maximum rho difference fraction = 0.000105234
Heat error = 4.59366e-10, entropy error = -5.74621e-09
ExecutionTime = 27.16 s  ClockTime = 28 s

Time = 220

Courant Number mean: 0.401046 max: 0.529318 max Ndt = 0.242573
diagonal:  Solving for rho, Initial residual = 0, Final residual = 0, No Iterations 0
diagonal:  Solving for theta, Initial residual = 0, Final residual = 0, No Iterations 0
DICPCG:  Solving for Exner, Initial residual = 0.0001344, Final residual = 1.14367e-08, No Iterations 44
diagonal:  Solving for rho, Initial residual = 0, Final residual = 0, No Iterations 0
diagonal:  Solving for theta, Initial residual = 0, Final residual = 0, No Iterations 0
DICPCG:  Solving for Exner, Initial residual = 1.18111e-05, Final residual = 9.79739e-11, No Iterations 63
diagonal:  Solving for rho, Initial residual = 0, Final residual = 0, No Iterations 0
diagonal:  Solving for theta, Initial residual = 0, Final residual = 0, No Iterations 0
time step continuity errors : sum local = 1.68344e-10, global = -3.72173e-13, cumulative = -2.80835e-12
Maximum rho difference fraction = 0.000147388
Heat error = 5.55597e-10, entropy error = -6.27984e-09
ExecutionTime = 29.21 s  ClockTime = 30 s

Time = 240

Courant Number mean: 0.401057 max: 0.528725 max Ndt = 0.239742
diagonal:  Solving for rho, Initial residual = 0, Final residual = 0, No Iterations 0
diagonal:  Solving for theta, Initial residual = 0, Final residual = 0, No Iterations 0
DICPCG:  Solving for Exner, Initial residual = 0.000134926, Final residual = 1.18979e-08, No Iterations 44
diagonal:  Solving for rho, Initial residual = 0, Final residual = 0, No Iterations 0
diagonal:  Solving for theta, Initial residual = 0, Final residual = 0, No Iterations 0
DICPCG:  Solving for Exner, Initial residual = 1.10224e-05, Final residual = 8.99847e-11, No Iterations 63
diagonal:  Solving for rho, Initial residual = 0, Final residual = 0, No Iterations 0
diagonal:  Solving for theta, Initial residual = 0, Final residual = 0, No Iterations 0
time step continuity errors : sum local = 1.67453e-10, global = -3.13736e-13, cumulative = -3.12208e-12
Maximum rho difference fraction = 0.000168475
Heat error = 6.58486e-10, entropy error = -6.14524e-09
ExecutionTime = 31.23 s  ClockTime = 32 s

Time = 260

Courant Number mean: 0.401091 max: 0.528633 max Ndt = 0.239578
diagonal:  Solving for rho, Initial residual = 0, Final residual = 0, No Iterations 0
diagonal:  Solving for theta, Initial residual = 0, Final residual = 0, No Iterations 0
DICPCG:  Solving for Exner, Initial residual = 0.000132659, Final residual = 1.22708e-08, No Iterations 44
diagonal:  Solving for rho, Initial residual = 0, Final residual = 0, No Iterations 0
diagonal:  Solving for theta, Initial residual = 0, Final residual = 0, No Iterations 0
DICPCG:  Solving for Exner, Initial residual = 1.0464e-05, Final residual = 8.37485e-11, No Iterations 64
diagonal:  Solving for rho, Initial residual = 0, Final residual = 0, No Iterations 0
diagonal:  Solving for theta, Initial residual = 0, Final residual = 0, No Iterations 0
time step continuity errors : sum local = 1.67e-10, global = -1.95049e-13, cumulative = -3.31713e-12
Maximum rho difference fraction = 0.000166685
Heat error = 7.63843e-10, entropy error = -5.60407e-09
ExecutionTime = 33.27 s  ClockTime = 34 s

Time = 280

Courant Number mean: 0.40111 max: 0.528084 max Ndt = 0.23778
diagonal:  Solving for rho, Initial residual = 0, Final residual = 0, No Iterations 0
diagonal:  Solving for theta, Initial residual = 0, Final residual = 0, No Iterations 0
DICPCG:  Solving for Exner, Initial residual = 0.000132477, Final residual = 1.16198e-08, No Iterations 44
diagonal:  Solving for rho, Initial residual = 0, Final residual = 0, No Iterations 0
diagonal:  Solving for theta, Initial residual = 0, Final residual = 0, No Iterations 0
DICPCG:  Solving for Exner, Initial residual = 9.9034e-06, Final residual = 8.74422e-11, No Iterations 63
diagonal:  Solving for rho, Initial residual = 0, Final residual = 0, No Iterations 0
diagonal:  Solving for theta, Initial residual = 0, Final residual = 0, No Iterations 0
time step continuity errors : sum local = 1.93053e-10, global = 1.6931e-13, cumulative = -3.14782e-12
Maximum rho difference fraction = 0.000156942
Heat error = 8.65347e-10, entropy error = -5.09681e-09
ExecutionTime = 35.31 s  ClockTime = 36 s

Time = 300

Courant Number mean: 0.401116 max: 0.528213 max Ndt = 0.234851
diagonal:  Solving for rho, Initial residual = 0, Final residual = 0, No Iterations 0
diagonal:  Solving for theta, Initial residual = 0, Final residual = 0, No Iterations 0
DICPCG:  Solving for Exner, Initial residual = 0.000131227, Final residual = 1.14629e-08, No Iterations 44
diagonal:  Solving for rho, Initial residual = 0, Final residual = 0, No Iterations 0
diagonal:  Solving for theta, Initial residual = 0, Final residual = 0, No Iterations 0
DICPCG:  Solving for Exner, Initial residual = 9.17356e-06, Final residual = 9.92611e-11, No Iterations 62
diagonal:  Solving for rho, Initial residual = 0, Final residual = 0, No Iterations 0
diagonal:  Solving for theta, Initial residual = 0, Final residual = 0, No Iterations 0
time step continuity errors : sum local = 2.1175e-10, global = 7.23427e-13, cumulative = -2.42439e-12
Maximum rho difference fraction = 0.000144398
Heat error = 9.62107e-10, entropy error = -4.90046e-09
ExecutionTime = 37.35 s  ClockTime = 38 s

Time = 320

Courant Number mean: 0.401128 max: 0.528646 max Ndt = 0.23137
diagonal:  Solving for rho, Initial residual = 0, Final residual = 0, No Iterations 0
diagonal:  Solving for theta, Initial residual = 0, Final residual = 0, No Iterations 0
DICPCG:  Solving for Exner, Initial residual = 0.000130002, Final residual = 1.09539e-08, No Iterations 44
diagonal:  Solving for rho, Initial residual = 0, Final residual = 0, No Iterations 0
diagonal:  Solving for theta, Initial residual = 0, Final residual = 0, No Iterations 0
DICPCG:  Solving for Exner, Initial residual = 8.89816e-06, Final residual = 9.87311e-11, No Iterations 62
diagonal:  Solving for rho, Initial residual = 0, Final residual = 0, No Iterations 0
diagonal:  Solving for theta, Initial residual = 0, Final residual = 0, No Iterations 0
time step continuity errors : sum local = 1.91812e-10, global = 1.73577e-12, cumulative = -6.88622e-13
Maximum rho difference fraction = 0.000146537
Heat error = 1.08885e-09, entropy error = -4.96266e-09
ExecutionTime = 39.4 s  ClockTime = 40 s

Time = 340

Courant Number mean: 0.40113 max: 0.529963 max Ndt = 0.228052
diagonal:  Solving for rho, Initial residual = 0, Final residual = 0, No Iterations 0
diagonal:  Solving for theta, Initial residual = 0, Final residual = 0, No Iterations 0
DICPCG:  Solving for Exner, Initial residual = 0.000129759, Final residual = 1.29521e-08, No Iterations 43
diagonal:  Solving for rho, Initial residual = 0, Final residual = 0, No Iterations 0
diagonal:  Solving for theta, Initial residual = 0, Final residual = 0, No Iterations 0
DICPCG:  Solving for Exner, Initial residual = 8.19463e-06, Final residual = 9.27978e-11, No Iterations 62
diagonal:  Solving for rho, Initial residual = 0, Final residual = 0, No Iterations 0
diagonal:  Solving for theta, Initial residual = 0, Final residual = 0, No Iterations 0
time step continuity errors : sum local = 2.12317e-10, global = 2.86494e-12, cumulative = 2.17632e-12
Maximum rho difference fraction = 0.000146038
Heat error = 1.39604e-09, entropy error = -4.98661e-09
ExecutionTime = 41.41 s  ClockTime = 42 s

Time = 360

Courant Number mean: 0.40112 max: 0.531073 max Ndt = 0.2254
diagonal:  Solving for rho, Initial residual = 0, Final residual = 0, No Iterations 0
diagonal:  Solving for theta, Initial residual = 0, Final residual = 0, No Iterations 0
DICPCG:  Solving for Exner, Initial residual = 0.000127822, Final residual = 1.22661e-08, No Iterations 43
diagonal:  Solving for rho, Initial residual = 0, Final residual = 0, No Iterations 0
diagonal:  Solving for theta, Initial residual = 0, Final residual = 0, No Iterations 0
DICPCG:  Solving for Exner, Initial residual = 7.85887e-06, Final residual = 9.26803e-11, No Iterations 62
diagonal:  Solving for rho, Initial residual = 0, Final residual = 0, No Iterations 0
diagonal:  Solving for theta, Initial residual = 0, Final residual = 0, No Iterations 0
time step continuity errors : sum local = 1.88404e-10, global = 4.44988e-12, cumulative = 6.6262e-12
Maximum rho difference fraction = 0.000140698
Heat error = 2.31846e-09, entropy error = -4.40726e-09
ExecutionTime = 43.42 s  ClockTime = 44 s

Time = 380

Courant Number mean: 0.401106 max: 0.532529 max Ndt = 0.223768
diagonal:  Solving for rho, Initial residual = 0, Final residual = 0, No Iterations 0
diagonal:  Solving for theta, Initial residual = 0, Final residual = 0, No Iterations 0
DICPCG:  Solving for Exner, Initial residual = 0.000127791, Final residual = 1.15898e-08, No Iterations 43
diagonal:  Solving for rho, Initial residual = 0, Final residual = 0, No Iterations 0
diagonal:  Solving for theta, Initial residual = 0, Final residual = 0, No Iterations 0
DICPCG:  Solving for Exner, Initial residual = 7.44122e-06, Final residual = 9.71002e-11, No Iterations 62
diagonal:  Solving for rho, Initial residual = 0, Final residual = 0, No Iterations 0
diagonal:  Solving for theta, Initial residual = 0, Final residual = 0, No Iterations 0
time step continuity errors : sum local = 2.06237e-10, global = 5.69303e-12, cumulative = 1.23192e-11
Maximum rho difference fraction = 0.000132473
Heat error = 4.85923e-09, entropy error = -2.10376e-09
ExecutionTime = 45.45 s  ClockTime = 46 s

Time = 400

Courant Number mean: 0.401092 max: 0.533415 max Ndt = 0.22311
diagonal:  Solving for rho, Initial residual = 0, Final residual = 0, No Iterations 0
diagonal:  Solving for theta, Initial residual = 0, Final residual = 0, No Iterations 0
DICPCG:  Solving for Exner, Initial residual = 0.000125822, Final residual = 1.1534e-08, No Iterations 42
diagonal:  Solving for rho, Initial residual = 0, Final residual = 0, No Iterations 0
diagonal:  Solving for theta, Initial residual = 0, Final residual = 0, No Iterations 0
DICPCG:  Solving for Exner, Initial residual = 7.11105e-06, Final residual = 8.62591e-11, No Iterations 62
diagonal:  Solving for rho, Initial residual = 0, Final residual = 0, No Iterations 0
diagonal:  Solving for theta, Initial residual = 0, Final residual = 0, No Iterations 0
time step continuity errors : sum local = 1.86989e-10, global = 6.7682e-12, cumulative = 1.90874e-11
Maximum rho difference fraction = 0.000122771
Heat error = 1.09613e-08, entropy error = 4.07789e-09
ExecutionTime = 47.47 s  ClockTime = 48 s

Time = 420

Courant Number mean: 0.401086 max: 0.534288 max Ndt = 0.223868
diagonal:  Solving for rho, Initial residual = 0, Final residual = 0, No Iterations 0
diagonal:  Solving for theta, Initial residual = 0, Final residual = 0, No Iterations 0
DICPCG:  Solving for Exner, Initial residual = 0.000125623, Final residual = 1.14157e-08, No Iterations 41
diagonal:  Solving for rho, Initial residual = 0, Final residual = 0, No Iterations 0
diagonal:  Solving for theta, Initial residual = 0, Final residual = 0, No Iterations 0
DICPCG:  Solving for Exner, Initial residual = 6.73596e-06, Final residual = 9.12713e-11, No Iterations 62
diagonal:  Solving for rho, Initial residual = 0, Final residual = 0, No Iterations 0
diagonal:  Solving for theta, Initial residual = 0, Final residual = 0, No Iterations 0
time step continuity errors : sum local = 2.11467e-10, global = 7.76989e-12, cumulative = 2.68573e-11
Maximum rho difference fraction = 0.000112262
Heat error = 2.38301e-08, entropy error = 1.7672e-08
ExecutionTime = 49.49 s  ClockTime = 50 s

Time = 440

Courant Number mean: 0.401093 max: 0.534411 max Ndt = 0.225956
diagonal:  Solving for rho, Initial residual = 0, Final residual = 0, No Iterations 0
diagonal:  Solving for theta, Initial residual = 0, Final residual = 0, No Iterations 0
DICPCG:  Solving for Exner, Initial residual = 0.000124422, Final residual = 1.11079e-08, No Iterations 41
diagonal:  Solving for rho, Initial residual = 0, Final residual = 0, No Iterations 0
diagonal:  Solving for theta, Initial residual = 0, Final residual = 0, No Iterations 0
DICPCG:  Solving for Exner, Initial residual = 6.45619e-06, Final residual = 9.64094e-11, No Iterations 61
diagonal:  Solving for rho, Initial residual = 0, Final residual = 0, No Iterations 0
diagonal:  Solving for theta, Initial residual = 0, Final residual = 0, No Iterations 0
time step continuity errors : sum local = 2.22846e-10, global = 7.95296e-12, cumulative = 3.48103e-11
Maximum rho difference fraction = 0.000101599
Heat error = 4.7941e-08, entropy error = 4.35558e-08
ExecutionTime = 51.52 s  ClockTime = 52 s

Time = 460

Courant Number mean: 0.401109 max: 0.534478 max Ndt = 0.227807
diagonal:  Solving for rho, Initial residual = 0, Final residual = 0, No Iterations 0
diagonal:  Solving for theta, Initial residual = 0, Final residual = 0, No Iterations 0
DICPCG:  Solving for Exner, Initial residual = 0.000123338, Final residual = 1.0973e-08, No Iterations 41
diagonal:  Solving for rho, Initial residual = 0, Final residual = 0, No Iterations 0
diagonal:  Solving for theta, Initial residual = 0, Final residual = 0, No Iterations 0
DICPCG:  Solving for Exner, Initial residual = 6.04695e-06, Final residual = 9.99502e-11, No Iterations 60
diagonal:  Solving for rho, Initial residual = 0, Final residual = 0, No Iterations 0
diagonal:  Solving for theta, Initial residual = 0, Final residual = 0, No Iterations 0
time step continuity errors : sum local = 2.34238e-10, global = 8.30466e-12, cumulative = 4.31149e-11
Maximum rho difference fraction = 9.30009e-05
Heat error = 8.83966e-08, entropy error = 8.7147e-08
ExecutionTime = 53.58 s  ClockTime = 54 s

Time = 480

Courant Number mean: 0.401133 max: 0.533966 max Ndt = 0.229165
diagonal:  Solving for rho, Initial residual = 0, Final residual = 0, No Iterations 0
diagonal:  Solving for theta, Initial residual = 0, Final residual = 0, No Iterations 0
DICPCG:  Solving for Exner, Initial residual = 0.000122549, Final residual = 1.15627e-08, No Iterations 40
diagonal:  Solving for rho, Initial residual = 0, Final residual = 0, No Iterations 0
diagonal:  Solving for theta, Initial residual = 0, Final residual = 0, No Iterations 0
DICPCG:  Solving for Exner, Initial residual = 5.87791e-06, Final residual = 8.59309e-11, No Iterations 62
diagonal:  Solving for rho, Initial residual = 0, Final residual = 0, No Iterations 0
diagonal:  Solving for theta, Initial residual = 0, Final residual = 0, No Iterations 0
time step continuity errors : sum local = 2.13463e-10, global = 7.62233e-12, cumulative = 5.07373e-11
Maximum rho difference fraction = 8.9167e-05
Heat error = 1.49434e-07, entropy error = 1.52691e-07
ExecutionTime = 55.61 s  ClockTime = 56 s

Time = 500

Courant Number mean: 0.40116 max: 0.533698 max Ndt = 0.229872
diagonal:  Solving for rho, Initial residual = 0, Final residual = 0, No Iterations 0
diagonal:  Solving for theta, Initial residual = 0, Final residual = 0, No Iterations 0
DICPCG:  Solving for Exner, Initial residual = 0.00012067, Final residual = 9.95717e-09, No Iterations 40
diagonal:  Solving for rho, Initial residual = 0, Final residual = 0, No Iterations 0
diagonal:  Solving for theta, Initial residual = 0, Final residual = 0, No Iterations 0
DICPCG:  Solving for Exner, Initial residual = 5.54484e-06, Final residual = 8.47689e-11, No Iterations 61
diagonal:  Solving for rho, Initial residual = 0, Final residual = 0, No Iterations 0
diagonal:  Solving for theta, Initial residual = 0, Final residual = 0, No Iterations 0
time step continuity errors : sum local = 2.02529e-10, global = 5.55118e-12, cumulative = 5.62885e-11
Maximum rho difference fraction = 8.34416e-05
Heat error = 2.32279e-07, entropy error = 2.40768e-07
ExecutionTime = 57.64 s  ClockTime = 58 s

Time = 520

Courant Number mean: 0.40119 max: 0.533358 max Ndt = 0.230805
diagonal:  Solving for rho, Initial residual = 0, Final residual = 0, No Iterations 0
diagonal:  Solving for theta, Initial residual = 0, Final residual = 0, No Iterations 0
DICPCG:  Solving for Exner, Initial residual = 0.000119783, Final residual = 9.95387e-09, No Iterations 40
diagonal:  Solving for rho, Initial residual = 0, Final residual = 0, No Iterations 0
diagonal:  Solving for theta, Initial residual = 0, Final residual = 0, No Iterations 0
DICPCG:  Solving for Exner, Initial residual = 5.53277e-06, Final residual = 9.7463e-11, No Iterations 61
diagonal:  Solving for rho, Initial residual = 0, Final residual = 0, No Iterations 0
diagonal:  Solving for theta, Initial residual = 0, Final residual = 0, No Iterations 0
time step continuity errors : sum local = 2.14077e-10, global = 3.98906e-12, cumulative = 6.02775e-11
Maximum rho difference fraction = 7.63925e-05
Heat error = 3.33098e-07, entropy error = 3.45914e-07
ExecutionTime = 59.73 s  ClockTime = 60 s

Time = 540

Courant Number mean: 0.401226 max: 0.533378 max Ndt = 0.231406
diagonal:  Solving for rho, Initial residual = 0, Final residual = 0, No Iterations 0
diagonal:  Solving for theta, Initial residual = 0, Final residual = 0, No Iterations 0
DICPCG:  Solving for Exner, Initial residual = 0.000118048, Final residual = 9.98889e-09, No Iterations 40
diagonal:  Solving for rho, Initial residual = 0, Final residual = 0, No Iterations 0
diagonal:  Solving for theta, Initial residual = 0, Final residual = 0, No Iterations 0
DICPCG:  Solving for Exner, Initial residual = 5.43828e-06, Final residual = 8.71915e-11, No Iterations 60
diagonal:  Solving for rho, Initial residual = 0, Final residual = 0, No Iterations 0
diagonal:  Solving for theta, Initial residual = 0, Final residual = 0, No Iterations 0
time step continuity errors : sum local = 2.35361e-10, global = -7.5761e-13, cumulative = 5.95199e-11
Maximum rho difference fraction = 6.86047e-05
Heat error = 4.42169e-07, entropy error = 4.5569e-07
ExecutionTime = 61.77 s  ClockTime = 62 s

Time = 560

Courant Number mean: 0.401265 max: 0.533274 max Ndt = 0.231287
diagonal:  Solving for rho, Initial residual = 0, Final residual = 0, No Iterations 0
diagonal:  Solving for theta, Initial residual = 0, Final residual = 0, No Iterations 0
DICPCG:  Solving for Exner, Initial residual = 0.000117745, Final residual = 1.03471e-08, No Iterations 40
diagonal:  Solving for rho, Initial residual = 0, Final residual = 0, No Iterations 0
diagonal:  Solving for theta, Initial residual = 0, Final residual = 0, No Iterations 0
DICPCG:  Solving for Exner, Initial residual = 5.30891e-06, Final residual = 8.61248e-11, No Iterations 62
diagonal:  Solving for rho, Initial residual = 0, Final residual = 0, No Iterations 0
diagonal:  Solving for theta, Initial residual = 0, Final residual = 0, No Iterations 0
time step continuity errors : sum local = 2.44087e-10, global = -2.62917e-12, cumulative = 5.68907e-11
Maximum rho difference fraction = 6.06321e-05
Heat error = 5.45229e-07, entropy error = 5.52512e-07
ExecutionTime = 63.81 s  ClockTime = 64 s

Time = 580

Courant Number mean: 0.401318 max: 0.533526 max Ndt = 0.230466
diagonal:  Solving for rho, Initial residual = 0, Final residual = 0, No Iterations 0
diagonal:  Solving for theta, Initial residual = 0, Final residual = 0, No Iterations 0
DICPCG:  Solving for Exner, Initial residual = 0.000117492, Final residual = 1.15402e-08, No Iterations 40
diagonal:  Solving for rho, Initial residual = 0, Final residual = 0, No Iterations 0
diagonal:  Solving for theta, Initial residual = 0, Final residual = 0, No Iterations 0
DICPCG:  Solving for Exner, Initial residual = 5.03956e-06, Final residual = 9.68125e-11, No Iterations 60
diagonal:  Solving for rho, Initial residual = 0, Final residual = 0, No Iterations 0
diagonal:  Solving for theta, Initial residual = 0, Final residual = 0, No Iterations 0
time step continuity errors : sum local = 2.84327e-10, global = -7.2562e-12, cumulative = 4.96345e-11
Maximum rho difference fraction = 5.30815e-05
Heat error = 6.27077e-07, entropy error = 6.18467e-07
ExecutionTime = 65.84 s  ClockTime = 66 s

Time = 600

Courant Number mean: 0.40138 max: 0.533612 max Ndt = 0.230047
diagonal:  Solving for rho, Initial residual = 0, Final residual = 0, No Iterations 0
diagonal:  Solving for theta, Initial residual = 0, Final residual = 0, No Iterations 0
DICPCG:  Solving for Exner, Initial residual = 0.000116741, Final residual = 1.02627e-08, No Iterations 41
diagonal:  Solving for rho, Initial residual = 0, Final residual = 0, No Iterations 0
diagonal:  Solving for theta, Initial residual = 0, Final residual = 0, No Iterations 0
DICPCG:  Solving for Exner, Initial residual = 4.493e-06, Final residual = 9.99219e-11, No Iterations 60
diagonal:  Solving for rho, Initial residual = 0, Final residual = 0, No Iterations 0
diagonal:  Solving for theta, Initial residual = 0, Final residual = 0, No Iterations 0
time step continuity errors : sum local = 2.48349e-10, global = -1.04593e-11, cumulative = 3.91752e-11
Maximum rho difference fraction = 4.90237e-05
Heat error = 6.76309e-07, entropy error = 6.41754e-07
ExecutionTime = 67.85 s  ClockTime = 68 s

Time = 620

Courant Number mean: 0.401439 max: 0.533942 max Ndt = 0.229266
diagonal:  Solving for rho, Initial residual = 0, Final residual = 0, No Iterations 0
diagonal:  Solving for theta, Initial residual = 0, Final residual = 0, No Iterations 0
DICPCG:  Solving for Exner, Initial residual = 0.000116107, Final residual = 9.97661e-09, No Iterations 41
diagonal:  Solving for rho, Initial residual = 0, Final residual = 0, No Iterations 0
diagonal:  Solving for theta, Initial residual = 0, Final residual = 0, No Iterations 0
DICPCG:  Solving for Exner, Initial residual = 4.39207e-06, Final residual = 9.66979e-11, No Iterations 59
diagonal:  Solving for rho, Initial residual = 0, Final residual = 0, No Iterations 0
diagonal:  Solving for theta, Initial residual = 0, Final residual = 0, No Iterations 0
time step continuity errors : sum local = 2.5116e-10, global = -1.42968e-11, cumulative = 2.48784e-11
Maximum rho difference fraction = 4.41001e-05
Heat error = 6.89216e-07, entropy error = 6.22043e-07
ExecutionTime = 69.89 s  ClockTime = 70 s

Time = 640

Courant Number mean: 0.401477 max: 0.534024 max Ndt = 0.228348
diagonal:  Solving for rho, Initial residual = 0, Final residual = 0, No Iterations 0
diagonal:  Solving for theta, Initial residual = 0, Final residual = 0, No Iterations 0
DICPCG:  Solving for Exner, Initial residual = 0.000113519, Final residual = 1.10687e-08, No Iterations 40
diagonal:  Solving for rho, Initial residual = 0, Final residual = 0, No Iterations 0
diagonal:  Solving for theta, Initial residual = 0, Final residual = 0, No Iterations 0
DICPCG:  Solving for Exner, Initial residual = 4.29493e-06, Final residual = 9.81249e-11, No Iterations 59
diagonal:  Solving for rho, Initial residual = 0, Final residual = 0, No Iterations 0
diagonal:  Solving for theta, Initial residual = 0, Final residual = 0, No Iterations 0
time step continuity errors : sum local = 2.5062e-10, global = -1.58054e-11, cumulative = 9.07301e-12
Maximum rho difference fraction = 4.07903e-05
Heat error = 6.71075e-07, entropy error = 5.72057e-07
ExecutionTime = 71.94 s  ClockTime = 72 s

Time = 660

Courant Number mean: 0.401486 max: 0.53427 max Ndt = 0.227744
diagonal:  Solving for rho, Initial residual = 0, Final residual = 0, No Iterations 0
diagonal:  Solving for theta, Initial residual = 0, Final residual = 0, No Iterations 0
DICPCG:  Solving for Exner, Initial residual = 0.000112969, Final residual = 9.70473e-09, No Iterations 40
diagonal:  Solving for rho, Initial residual = 0, Final residual = 0, No Iterations 0
diagonal:  Solving for theta, Initial residual = 0, Final residual = 0, No Iterations 0
DICPCG:  Solving for Exner, Initial residual = 4.56833e-06, Final residual = 9.45162e-11, No Iterations 60
diagonal:  Solving for rho, Initial residual = 0, Final residual = 0, No Iterations 0
diagonal:  Solving for theta, Initial residual = 0, Final residual = 0, No Iterations 0
time step continuity errors : sum local = 2.82983e-10, global = -1.56979e-11, cumulative = -6.62489e-12
Maximum rho difference fraction = 5.78966e-05
Heat error = 6.34263e-07, entropy error = 5.14106e-07
ExecutionTime = 73.97 s  ClockTime = 74 s

Time = 680

Courant Number mean: 0.401481 max: 0.534295 max Ndt = 0.227422
diagonal:  Solving for rho, Initial residual = 0, Final residual = 0, No Iterations 0
diagonal:  Solving for theta, Initial residual = 0, Final residual = 0, No Iterations 0
DICPCG:  Solving for Exner, Initial residual = 0.000111276, Final residual = 1.07015e-08, No Iterations 40
diagonal:  Solving for rho, Initial residual = 0, Final residual = 0, No Iterations 0
diagonal:  Solving for theta, Initial residual = 0, Final residual = 0, No Iterations 0
DICPCG:  Solving for Exner, Initial residual = 4.50255e-06, Final residual = 8.70472e-11, No Iterations 60
diagonal:  Solving for rho, Initial residual = 0, Final residual = 0, No Iterations 0
diagonal:  Solving for theta, Initial residual = 0, Final residual = 0, No Iterations 0
time step continuity errors : sum local = 2.50082e-10, global = -1.51913e-11, cumulative = -2.18162e-11
Maximum rho difference fraction = 6.54525e-05
Heat error = 5.94129e-07, entropy error = 4.72633e-07
ExecutionTime = 76 s  ClockTime = 76 s

Time = 700

Courant Number mean: 0.401478 max: 0.534772 max Ndt = 0.227107
diagonal:  Solving for rho, Initial residual = 0, Final residual = 0, No Iterations 0
diagonal:  Solving for theta, Initial residual = 0, Final residual = 0, No Iterations 0
DICPCG:  Solving for Exner, Initial residual = 0.000111852, Final residual = 1.09205e-08, No Iterations 40
diagonal:  Solving for rho, Initial residual = 0, Final residual = 0, No Iterations 0
diagonal:  Solving for theta, Initial residual = 0, Final residual = 0, No Iterations 0
DICPCG:  Solving for Exner, Initial residual = 4.24626e-06, Final residual = 9.80099e-11, No Iterations 60
diagonal:  Solving for rho, Initial residual = 0, Final residual = 0, No Iterations 0
diagonal:  Solving for theta, Initial residual = 0, Final residual = 0, No Iterations 0
time step continuity errors : sum local = 2.92255e-10, global = -1.31856e-11, cumulative = -3.50018e-11
Maximum rho difference fraction = 4.5654e-05
Heat error = 5.64338e-07, entropy error = 4.6562e-07
ExecutionTime = 78.02 s  ClockTime = 78 s

Time = 720

Courant Number mean: 0.401482 max: 0.535081 max Ndt = 0.227258
diagonal:  Solving for rho, Initial residual = 0, Final residual = 0, No Iterations 0
diagonal:  Solving for theta, Initial residual = 0, Final residual = 0, No Iterations 0
DICPCG:  Solving for Exner, Initial residual = 0.000110562, Final residual = 1.06937e-08, No Iterations 40
diagonal:  Solving for rho, Initial residual = 0, Final residual = 0, No Iterations 0
diagonal:  Solving for theta, Initial residual = 0, Final residual = 0, No Iterations 0
DICPCG:  Solving for Exner, Initial residual = 3.98245e-06, Final residual = 8.47062e-11, No Iterations 60
diagonal:  Solving for rho, Initial residual = 0, Final residual = 0, No Iterations 0
diagonal:  Solving for theta, Initial residual = 0, Final residual = 0, No Iterations 0
time step continuity errors : sum local = 2.59412e-10, global = -1.09701e-11, cumulative = -4.59719e-11
Maximum rho difference fraction = 4.32025e-05
Heat error = 5.53275e-07, entropy error = 4.982e-07
ExecutionTime = 80.04 s  ClockTime = 80 s

Time = 740

Courant Number mean: 0.401487 max: 0.535672 max Ndt = 0.227288
diagonal:  Solving for rho, Initial residual = 0, Final residual = 0, No Iterations 0
diagonal:  Solving for theta, Initial residual = 0, Final residual = 0, No Iterations 0
DICPCG:  Solving for Exner, Initial residual = 0.000110103, Final residual = 9.74309e-09, No Iterations 40
diagonal:  Solving for rho, Initial residual = 0, Final residual = 0, No Iterations 0
diagonal:  Solving for theta, Initial residual = 0, Final residual = 0, No Iterations 0
DICPCG:  Solving for Exner, Initial residual = 4.02483e-06, Final residual = 8.55318e-11, No Iterations 60
diagonal:  Solving for rho, Initial residual = 0, Final residual = 0, No Iterations 0
diagonal:  Solving for theta, Initial residual = 0, Final residual = 0, No Iterations 0
time step continuity errors : sum local = 2.94467e-10, global = -8.53973e-12, cumulative = -5.45116e-11
Maximum rho difference fraction = 4.32859e-05
Heat error = 5.62256e-07, entropy error = 5.608e-07
ExecutionTime = 82.08 s  ClockTime = 82 s

Time = 760

Courant Number mean: 0.401483 max: 0.536529 max Ndt = 0.227172
diagonal:  Solving for rho, Initial residual = 0, Final residual = 0, No Iterations 0
diagonal:  Solving for theta, Initial residual = 0, Final residual = 0, No Iterations 0
DICPCG:  Solving for Exner, Initial residual = 0.000108693, Final residual = 1.00361e-08, No Iterations 40
diagonal:  Solving for rho, Initial residual = 0, Final residual = 0, No Iterations 0
diagonal:  Solving for theta, Initial residual = 0, Final residual = 0, No Iterations 0
DICPCG:  Solving for Exner, Initial residual = 4.05851e-06, Final residual = 8.75751e-11, No Iterations 59
diagonal:  Solving for rho, Initial residual = 0, Final residual = 0, No Iterations 0
diagonal:  Solving for theta, Initial residual = 0, Final residual = 0, No Iterations 0
time step continuity errors : sum local = 3.13547e-10, global = -3.92061e-12, cumulative = -5.84322e-11
Maximum rho difference fraction = 4.46546e-05
Heat error = 5.85731e-07, entropy error = 6.32434e-07
ExecutionTime = 84.1 s  ClockTime = 84 s

Time = 780

Courant Number mean: 0.401466 max: 0.537827 max Ndt = 0.227533
diagonal:  Solving for rho, Initial residual = 0, Final residual = 0, No Iterations 0
diagonal:  Solving for theta, Initial residual = 0, Final residual = 0, No Iterations 0
DICPCG:  Solving for Exner, Initial residual = 0.000108239, Final residual = 9.90658e-09, No Iterations 40
diagonal:  Solving for rho, Initial residual = 0, Final residual = 0, No Iterations 0
diagonal:  Solving for theta, Initial residual = 0, Final residual = 0, No Iterations 0
DICPCG:  Solving for Exner, Initial residual = 4.00144e-06, Final residual = 9.92311e-11, No Iterations 59
diagonal:  Solving for rho, Initial residual = 0, Final residual = 0, No Iterations 0
diagonal:  Solving for theta, Initial residual = 0, Final residual = 0, No Iterations 0
time step continuity errors : sum local = 3.03747e-10, global = -1.53957e-12, cumulative = -5.99718e-11
Maximum rho difference fraction = 3.97772e-05
Heat error = 6.13449e-07, entropy error = 6.8801e-07
ExecutionTime = 86.13 s  ClockTime = 86 s

Time = 800

Courant Number mean: 0.401447 max: 0.539005 max Ndt = 0.227878
diagonal:  Solving for rho, Initial residual = 0, Final residual = 0, No Iterations 0
diagonal:  Solving for theta, Initial residual = 0, Final residual = 0, No Iterations 0
DICPCG:  Solving for Exner, Initial residual = 0.000107771, Final residual = 1.00367e-08, No Iterations 40
diagonal:  Solving for rho, Initial residual = 0, Final residual = 0, No Iterations 0
diagonal:  Solving for theta, Initial residual = 0, Final residual = 0, No Iterations 0
DICPCG:  Solving for Exner, Initial residual = 3.94584e-06, Final residual = 9.6469e-11, No Iterations 58
diagonal:  Solving for rho, Initial residual = 0, Final residual = 0, No Iterations 0
diagonal:  Solving for theta, Initial residual = 0, Final residual = 0, No Iterations 0
time step continuity errors : sum local = 3.23206e-10, global = 1.33954e-12, cumulative = -5.86323e-11
Maximum rho difference fraction = 3.18081e-05
Heat error = 6.34357e-07, entropy error = 7.07394e-07
ExecutionTime = 88.2 s  ClockTime = 89 s

Time = 820

Courant Number mean: 0.401448 max: 0.540547 max Ndt = 0.228524
diagonal:  Solving for rho, Initial residual = 0, Final residual = 0, No Iterations 0
diagonal:  Solving for theta, Initial residual = 0, Final residual = 0, No Iterations 0
DICPCG:  Solving for Exner, Initial residual = 0.000106388, Final residual = 9.05981e-09, No Iterations 40
diagonal:  Solving for rho, Initial residual = 0, Final residual = 0, No Iterations 0
diagonal:  Solving for theta, Initial residual = 0, Final residual = 0, No Iterations 0
DICPCG:  Solving for Exner, Initial residual = 3.78326e-06, Final residual = 9.62838e-11, No Iterations 59
diagonal:  Solving for rho, Initial residual = 0, Final residual = 0, No Iterations 0
diagonal:  Solving for theta, Initial residual = 0, Final residual = 0, No Iterations 0
time step continuity errors : sum local = 3.27435e-10, global = 2.56811e-12, cumulative = -5.60641e-11
Maximum rho difference fraction = 3.17467e-05
Heat error = 6.41186e-07, entropy error = 6.8313e-07
ExecutionTime = 90.22 s  ClockTime = 91 s

Time = 840

Courant Number mean: 0.401477 max: 0.541985 max Ndt = 0.228674
diagonal:  Solving for rho, Initial residual = 0, Final residual = 0, No Iterations 0
diagonal:  Solving for theta, Initial residual = 0, Final residual = 0, No Iterations 0
DICPCG:  Solving for Exner, Initial residual = 0.000105994, Final residual = 8.45821e-09, No Iterations 40
diagonal:  Solving for rho, Initial residual = 0, Final residual = 0, No Iterations 0
diagonal:  Solving for theta, Initial residual = 0, Final residual = 0, No Iterations 0
DICPCG:  Solving for Exner, Initial residual = 3.97218e-06, Final residual = 9.41995e-11, No Iterations 59
diagonal:  Solving for rho, Initial residual = 0, Final residual = 0, No Iterations 0
diagonal:  Solving for theta, Initial residual = 0, Final residual = 0, No Iterations 0
time step continuity errors : sum local = 3.2209e-10, global = 2.74436e-12, cumulative = -5.33198e-11
Maximum rho difference fraction = 2.75824e-05
Heat error = 6.33746e-07, entropy error = 6.23805e-07
ExecutionTime = 92.25 s  ClockTime = 93 s

Time = 860

Courant Number mean: 0.401496 max: 0.543562 max Ndt = 0.228341
diagonal:  Solving for rho, Initial residual = 0, Final residual = 0, No Iterations 0
diagonal:  Solving for theta, Initial residual = 0, Final residual = 0, No Iterations 0
DICPCG:  Solving for Exner, Initial residual = 0.000104534, Final residual = 8.64083e-09, No Iterations 40
diagonal:  Solving for rho, Initial residual = 0, Final residual = 0, No Iterations 0
diagonal:  Solving for theta, Initial residual = 0, Final residual = 0, No Iterations 0
DICPCG:  Solving for Exner, Initial residual = 3.83242e-06, Final residual = 9.79951e-11, No Iterations 59
diagonal:  Solving for rho, Initial residual = 0, Final residual = 0, No Iterations 0
diagonal:  Solving for theta, Initial residual = 0, Final residual = 0, No Iterations 0
time step continuity errors : sum local = 3.21304e-10, global = 2.54799e-12, cumulative = -5.07718e-11
Maximum rho difference fraction = 2.30372e-05
Heat error = 6.18865e-07, entropy error = 5.51205e-07
ExecutionTime = 94.26 s  ClockTime = 95 s

Time = 880

Courant Number mean: 0.40148 max: 0.544821 max Ndt = 0.228733
diagonal:  Solving for rho, Initial residual = 0, Final residual = 0, No Iterations 0
diagonal:  Solving for theta, Initial residual = 0, Final residual = 0, No Iterations 0
DICPCG:  Solving for Exner, Initial residual = 0.000104582, Final residual = 9.10982e-09, No Iterations 40
diagonal:  Solving for rho, Initial residual = 0, Final residual = 0, No Iterations 0
diagonal:  Solving for theta, Initial residual = 0, Final residual = 0, No Iterations 0
DICPCG:  Solving for Exner, Initial residual = 3.79164e-06, Final residual = 8.87021e-11, No Iterations 59
diagonal:  Solving for rho, Initial residual = 0, Final residual = 0, No Iterations 0
diagonal:  Solving for theta, Initial residual = 0, Final residual = 0, No Iterations 0
time step continuity errors : sum local = 3.1857e-10, global = 1.64938e-12, cumulative = -4.91224e-11
Maximum rho difference fraction = 3.46173e-05
Heat error = 6.06494e-07, entropy error = 4.91947e-07
ExecutionTime = 96.33 s  ClockTime = 97 s

Time = 900

Courant Number mean: 0.40146 max: 0.546174 max Ndt = 0.228753
diagonal:  Solving for rho, Initial residual = 0, Final residual = 0, No Iterations 0
diagonal:  Solving for theta, Initial residual = 0, Final residual = 0, No Iterations 0
DICPCG:  Solving for Exner, Initial residual = 0.000102871, Final residual = 1.01679e-08, No Iterations 39
diagonal:  Solving for rho, Initial residual = 0, Final residual = 0, No Iterations 0
diagonal:  Solving for theta, Initial residual = 0, Final residual = 0, No Iterations 0
DICPCG:  Solving for Exner, Initial residual = 3.68943e-06, Final residual = 8.64541e-11, No Iterations 59
diagonal:  Solving for rho, Initial residual = 0, Final residual = 0, No Iterations 0
diagonal:  Solving for theta, Initial residual = 0, Final residual = 0, No Iterations 0
time step continuity errors : sum local = 3.21414e-10, global = 6.51174e-13, cumulative = -4.84713e-11
Maximum rho difference fraction = 3.14581e-05
Heat error = 6.04019e-07, entropy error = 4.66953e-07
ExecutionTime = 98.35 s  ClockTime = 99 s

Time = 920

Courant Number mean: 0.401465 max: 0.547205 max Ndt = 0.228324
diagonal:  Solving for rho, Initial residual = 0, Final residual = 0, No Iterations 0
diagonal:  Solving for theta, Initial residual = 0, Final residual = 0, No Iterations 0
DICPCG:  Solving for Exner, Initial residual = 0.000102141, Final residual = 9.70975e-09, No Iterations 39
diagonal:  Solving for rho, Initial residual = 0, Final residual = 0, No Iterations 0
diagonal:  Solving for theta, Initial residual = 0, Final residual = 0, No Iterations 0
DICPCG:  Solving for Exner, Initial residual = 3.7797e-06, Final residual = 9.32997e-11, No Iterations 58
diagonal:  Solving for rho, Initial residual = 0, Final residual = 0, No Iterations 0
diagonal:  Solving for theta, Initial residual = 0, Final residual = 0, No Iterations 0
time step continuity errors : sum local = 3.45827e-10, global = -8.08013e-13, cumulative = -4.92793e-11
Maximum rho difference fraction = 2.92698e-05
Heat error = 6.12273e-07, entropy error = 4.83459e-07
ExecutionTime = 100.37 s  ClockTime = 101 s

Time = 940

Courant Number mean: 0.401491 max: 0.548449 max Ndt = 0.227497
diagonal:  Solving for rho, Initial residual = 0, Final residual = 0, No Iterations 0
diagonal:  Solving for theta, Initial residual = 0, Final residual = 0, No Iterations 0
DICPCG:  Solving for Exner, Initial residual = 0.000101153, Final residual = 8.69716e-09, No Iterations 40
diagonal:  Solving for rho, Initial residual = 0, Final residual = 0, No Iterations 0
diagonal:  Solving for theta, Initial residual = 0, Final residual = 0, No Iterations 0
DICPCG:  Solving for Exner, Initial residual = 3.72245e-06, Final residual = 8.68785e-11, No Iterations 59
diagonal:  Solving for rho, Initial residual = 0, Final residual = 0, No Iterations 0
diagonal:  Solving for theta, Initial residual = 0, Final residual = 0, No Iterations 0
time step continuity errors : sum local = 3.58809e-10, global = -1.58008e-12, cumulative = -5.08593e-11
Maximum rho difference fraction = 2.41801e-05
Heat error = 6.25844e-07, entropy error = 5.33033e-07
ExecutionTime = 102.38 s  ClockTime = 103 s

Time = 960

Courant Number mean: 0.401516 max: 0.549564 max Ndt = 0.226355
diagonal:  Solving for rho, Initial residual = 0, Final residual = 0, No Iterations 0
diagonal:  Solving for theta, Initial residual = 0, Final residual = 0, No Iterations 0
DICPCG:  Solving for Exner, Initial residual = 0.000100325, Final residual = 9.44453e-09, No Iterations 40
diagonal:  Solving for rho, Initial residual = 0, Final residual = 0, No Iterations 0
diagonal:  Solving for theta, Initial residual = 0, Final residual = 0, No Iterations 0
DICPCG:  Solving for Exner, Initial residual = 3.60959e-06, Final residual = 8.51439e-11, No Iterations 58
diagonal:  Solving for rho, Initial residual = 0, Final residual = 0, No Iterations 0
diagonal:  Solving for theta, Initial residual = 0, Final residual = 0, No Iterations 0
time step continuity errors : sum local = 3.87193e-10, global = -1.72845e-12, cumulative = -5.25878e-11
Maximum rho difference fraction = 3.13084e-05
Heat error = 6.37235e-07, entropy error = 5.96069e-07
ExecutionTime = 104.42 s  ClockTime = 105 s

Time = 980

Courant Number mean: 0.401521 max: 0.550802 max Ndt = 0.225565
diagonal:  Solving for rho, Initial residual = 0, Final residual = 0, No Iterations 0
diagonal:  Solving for theta, Initial residual = 0, Final residual = 0, No Iterations 0
DICPCG:  Solving for Exner, Initial residual = 9.93689e-05, Final residual = 8.31049e-09, No Iterations 40
diagonal:  Solving for rho, Initial residual = 0, Final residual = 0, No Iterations 0
diagonal:  Solving for theta, Initial residual = 0, Final residual = 0, No Iterations 0
DICPCG:  Solving for Exner, Initial residual = 3.69123e-06, Final residual = 9.58815e-11, No Iterations 58
diagonal:  Solving for rho, Initial residual = 0, Final residual = 0, No Iterations 0
diagonal:  Solving for theta, Initial residual = 0, Final residual = 0, No Iterations 0
time step continuity errors : sum local = 3.55684e-10, global = -1.44528e-12, cumulative = -5.40331e-11
Maximum rho difference fraction = 3.15992e-05
Heat error = 6.41798e-07, entropy error = 6.50104e-07
ExecutionTime = 106.45 s  ClockTime = 107 s

Time = 1000

Courant Number mean: 0.401529 max: 0.551832 max Ndt = 0.224663
diagonal:  Solving for rho, Initial residual = 0, Final residual = 0, No Iterations 0
diagonal:  Solving for theta, Initial residual = 0, Final residual = 0, No Iterations 0
DICPCG:  Solving for Exner, Initial residual = 9.83084e-05, Final residual = 8.26115e-09, No Iterations 40
diagonal:  Solving for rho, Initial residual = 0, Final residual = 0, No Iterations 0
diagonal:  Solving for theta, Initial residual = 0, Final residual = 0, No Iterations 0
DICPCG:  Solving for Exner, Initial residual = 3.65763e-06, Final residual = 9.99918e-11, No Iterations 57
diagonal:  Solving for rho, Initial residual = 0, Final residual = 0, No Iterations 0
diagonal:  Solving for theta, Initial residual = 0, Final residual = 0, No Iterations 0
time step continuity errors : sum local = 3.51059e-10, global = 5.73707e-13, cumulative = -5.34594e-11
Maximum rho difference fraction = 2.60417e-05
Heat error = 6.40032e-07, entropy error = 6.78097e-07
ExecutionTime = 108.5 s  ClockTime = 109 s

Time = 1020

Courant Number mean: 0.401527 max: 0.552954 max Ndt = 0.223506
diagonal:  Solving for rho, Initial residual = 0, Final residual = 0, No Iterations 0
diagonal:  Solving for theta, Initial residual = 0, Final residual = 0, No Iterations 0
DICPCG:  Solving for Exner, Initial residual = 9.82463e-05, Final residual = 8.65592e-09, No Iterations 40
diagonal:  Solving for rho, Initial residual = 0, Final residual = 0, No Iterations 0
diagonal:  Solving for theta, Initial residual = 0, Final residual = 0, No Iterations 0
DICPCG:  Solving for Exner, Initial residual = 3.60112e-06, Final residual = 8.33732e-11, No Iterations 58
diagonal:  Solving for rho, Initial residual = 0, Final residual = 0, No Iterations 0
diagonal:  Solving for theta, Initial residual = 0, Final residual = 0, No Iterations 0
time step continuity errors : sum local = 3.31594e-10, global = 1.97802e-12, cumulative = -5.14814e-11
Maximum rho difference fraction = 2.67169e-05
Heat error = 6.36098e-07, entropy error = 6.73639e-07
ExecutionTime = 110.53 s  ClockTime = 111 s

Time = 1040

Courant Number mean: 0.401529 max: 0.553834 max Ndt = 0.222727
diagonal:  Solving for rho, Initial residual = 0, Final residual = 0, No Iterations 0
diagonal:  Solving for theta, Initial residual = 0, Final residual = 0, No Iterations 0
DICPCG:  Solving for Exner, Initial residual = 9.71035e-05, Final residual = 9.22196e-09, No Iterations 40
diagonal:  Solving for rho, Initial residual = 0, Final residual = 0, No Iterations 0
diagonal:  Solving for theta, Initial residual = 0, Final residual = 0, No Iterations 0
DICPCG:  Solving for Exner, Initial residual = 3.39541e-06, Final residual = 8.37005e-11, No Iterations 57
diagonal:  Solving for rho, Initial residual = 0, Final residual = 0, No Iterations 0
diagonal:  Solving for theta, Initial residual = 0, Final residual = 0, No Iterations 0
time step continuity errors : sum local = 3.39842e-10, global = 3.70577e-12, cumulative = -4.77756e-11
Maximum rho difference fraction = 3.04578e-05
Heat error = 6.34253e-07, entropy error = 6.41979e-07
ExecutionTime = 112.58 s  ClockTime = 113 s

Time = 1060

Courant Number mean: 0.401527 max: 0.554734 max Ndt = 0.222322
diagonal:  Solving for rho, Initial residual = 0, Final residual = 0, No Iterations 0
diagonal:  Solving for theta, Initial residual = 0, Final residual = 0, No Iterations 0
DICPCG:  Solving for Exner, Initial residual = 9.66298e-05, Final residual = 8.86602e-09, No Iterations 40
diagonal:  Solving for rho, Initial residual = 0, Final residual = 0, No Iterations 0
diagonal:  Solving for theta, Initial residual = 0, Final residual = 0, No Iterations 0
DICPCG:  Solving for Exner, Initial residual = 3.31673e-06, Final residual = 8.64147e-11, No Iterations 56
diagonal:  Solving for rho, Initial residual = 0, Final residual = 0, No Iterations 0
diagonal:  Solving for theta, Initial residual = 0, Final residual = 0, No Iterations 0
time step continuity errors : sum local = 3.60048e-10, global = 3.81277e-12, cumulative = -4.39628e-11
Maximum rho difference fraction = 2.93808e-05
Heat error = 6.36107e-07, entropy error = 5.97283e-07
ExecutionTime = 114.61 s  ClockTime = 115 s

Time = 1080

Courant Number mean: 0.401533 max: 0.555328 max Ndt = 0.222557
diagonal:  Solving for rho, Initial residual = 0, Final residual = 0, No Iterations 0
diagonal:  Solving for theta, Initial residual = 0, Final residual = 0, No Iterations 0
DICPCG:  Solving for Exner, Initial residual = 9.51221e-05, Final residual = 8.62408e-09, No Iterations 40
diagonal:  Solving for rho, Initial residual = 0, Final residual = 0, No Iterations 0
diagonal:  Solving for theta, Initial residual = 0, Final residual = 0, No Iterations 0
DICPCG:  Solving for Exner, Initial residual = 3.12501e-06, Final residual = 8.58122e-11, No Iterations 57
diagonal:  Solving for rho, Initial residual = 0, Final residual = 0, No Iterations 0
diagonal:  Solving for theta, Initial residual = 0, Final residual = 0, No Iterations 0
time step continuity errors : sum local = 3.77861e-10, global = 3.16232e-12, cumulative = -4.08005e-11
Maximum rho difference fraction = 2.33595e-05
Heat error = 6.40402e-07, entropy error = 5.57277e-07
ExecutionTime = 116.64 s  ClockTime = 117 s

Time = 1100

Courant Number mean: 0.40154 max: 0.555869 max Ndt = 0.222811
diagonal:  Solving for rho, Initial residual = 0, Final residual = 0, No Iterations 0
diagonal:  Solving for theta, Initial residual = 0, Final residual = 0, No Iterations 0
DICPCG:  Solving for Exner, Initial residual = 9.40827e-05, Final residual = 7.75369e-09, No Iterations 40
diagonal:  Solving for rho, Initial residual = 0, Final residual = 0, No Iterations 0
diagonal:  Solving for theta, Initial residual = 0, Final residual = 0, No Iterations 0
DICPCG:  Solving for Exner, Initial residual = 3.13789e-06, Final residual = 8.76813e-11, No Iterations 57
diagonal:  Solving for rho, Initial residual = 0, Final residual = 0, No Iterations 0
diagonal:  Solving for theta, Initial residual = 0, Final residual = 0, No Iterations 0
time step continuity errors : sum local = 3.60526e-10, global = 1.53346e-12, cumulative = -3.9267e-11
Maximum rho difference fraction = 2.31293e-05
Heat error = 6.44806e-07, entropy error = 5.36841e-07
ExecutionTime = 118.68 s  ClockTime = 119 s

Time = 1120

Courant Number mean: 0.401543 max: 0.556074 max Ndt = 0.22319
diagonal:  Solving for rho, Initial residual = 0, Final residual = 0, No Iterations 0
diagonal:  Solving for theta, Initial residual = 0, Final residual = 0, No Iterations 0
DICPCG:  Solving for Exner, Initial residual = 9.23636e-05, Final residual = 8.37118e-09, No Iterations 39
diagonal:  Solving for rho, Initial residual = 0, Final residual = 0, No Iterations 0
diagonal:  Solving for theta, Initial residual = 0, Final residual = 0, No Iterations 0
DICPCG:  Solving for Exner, Initial residual = 3.32447e-06, Final residual = 8.61587e-11, No Iterations 58
diagonal:  Solving for rho, Initial residual = 0, Final residual = 0, No Iterations 0
diagonal:  Solving for theta, Initial residual = 0, Final residual = 0, No Iterations 0
time step continuity errors : sum local = 3.83807e-10, global = 5.97296e-13, cumulative = -3.86697e-11
Maximum rho difference fraction = 2.89907e-05
Heat error = 6.47865e-07, entropy error = 5.42585e-07
ExecutionTime = 120.71 s  ClockTime = 121 s

Time = 1140

Courant Number mean: 0.401552 max: 0.556231 max Ndt = 0.223259
diagonal:  Solving for rho, Initial residual = 0, Final residual = 0, No Iterations 0
diagonal:  Solving for theta, Initial residual = 0, Final residual = 0, No Iterations 0
DICPCG:  Solving for Exner, Initial residual = 9.13692e-05, Final residual = 7.14147e-09, No Iterations 39
diagonal:  Solving for rho, Initial residual = 0, Final residual = 0, No Iterations 0
diagonal:  Solving for theta, Initial residual = 0, Final residual = 0, No Iterations 0
DICPCG:  Solving for Exner, Initial residual = 3.33072e-06, Final residual = 9.26157e-11, No Iterations 57
diagonal:  Solving for rho, Initial residual = 0, Final residual = 0, No Iterations 0
diagonal:  Solving for theta, Initial residual = 0, Final residual = 0, No Iterations 0
time step continuity errors : sum local = 3.78125e-10, global = -2.79001e-13, cumulative = -3.89487e-11
Maximum rho difference fraction = 2.28719e-05
Heat error = 6.4966e-07, entropy error = 5.70536e-07
ExecutionTime = 122.75 s  ClockTime = 123 s

Time = 1160

Courant Number mean: 0.401561 max: 0.556126 max Ndt = 0.223503
diagonal:  Solving for rho, Initial residual = 0, Final residual = 0, No Iterations 0
diagonal:  Solving for theta, Initial residual = 0, Final residual = 0, No Iterations 0
DICPCG:  Solving for Exner, Initial residual = 9.10825e-05, Final residual = 8.02034e-09, No Iterations 39
diagonal:  Solving for rho, Initial residual = 0, Final residual = 0, No Iterations 0
diagonal:  Solving for theta, Initial residual = 0, Final residual = 0, No Iterations 0
DICPCG:  Solving for Exner, Initial residual = 3.30771e-06, Final residual = 9.39544e-11, No Iterations 58
diagonal:  Solving for rho, Initial residual = 0, Final residual = 0, No Iterations 0
diagonal:  Solving for theta, Initial residual = 0, Final residual = 0, No Iterations 0
time step continuity errors : sum local = 4.12085e-10, global = -3.31714e-13, cumulative = -3.92805e-11
Maximum rho difference fraction = 2.78247e-05
Heat error = 6.51121e-07, entropy error = 6.08201e-07
ExecutionTime = 124.77 s  ClockTime = 125 s

Time = 1180

Courant Number mean: 0.401556 max: 0.556085 max Ndt = 0.223639
diagonal:  Solving for rho, Initial residual = 0, Final residual = 0, No Iterations 0
diagonal:  Solving for theta, Initial residual = 0, Final residual = 0, No Iterations 0
DICPCG:  Solving for Exner, Initial residual = 9.09801e-05, Final residual = 8.32775e-09, No Iterations 39
diagonal:  Solving for rho, Initial residual = 0, Final residual = 0, No Iterations 0
diagonal:  Solving for theta, Initial residual = 0, Final residual = 0, No Iterations 0
DICPCG:  Solving for Exner, Initial residual = 3.04553e-06, Final residual = 9.06643e-11, No Iterations 57
diagonal:  Solving for rho, Initial residual = 0, Final residual = 0, No Iterations 0
diagonal:  Solving for theta, Initial residual = 0, Final residual = 0, No Iterations 0
time step continuity errors : sum local = 4.15072e-10, global = 3.15889e-13, cumulative = -3.89646e-11
Maximum rho difference fraction = 2.82941e-05
Heat error = 6.52989e-07, entropy error = 6.4029e-07
ExecutionTime = 126.88 s  ClockTime = 127 s

Time = 1200

Courant Number mean: 0.401554 max: 0.555943 max Ndt = 0.2235
diagonal:  Solving for rho, Initial residual = 0, Final residual = 0, No Iterations 0
diagonal:  Solving for theta, Initial residual = 0, Final residual = 0, No Iterations 0
DICPCG:  Solving for Exner, Initial residual = 9.07941e-05, Final residual = 7.17217e-09, No Iterations 40
diagonal:  Solving for rho, Initial residual = 0, Final residual = 0, No Iterations 0
diagonal:  Solving for theta, Initial residual = 0, Final residual = 0, No Iterations 0
DICPCG:  Solving for Exner, Initial residual = 2.82229e-06, Final residual = 9.44708e-11, No Iterations 57
diagonal:  Solving for rho, Initial residual = 0, Final residual = 0, No Iterations 0
diagonal:  Solving for theta, Initial residual = 0, Final residual = 0, No Iterations 0
time step continuity errors : sum local = 4.16821e-10, global = 1.16198e-12, cumulative = -3.78026e-11
Maximum rho difference fraction = 2.32947e-05
Heat error = 6.5535e-07, entropy error = 6.55452e-07
ExecutionTime = 128.92 s  ClockTime = 129 s

Time = 1220

Courant Number mean: 0.40156 max: 0.556017 max Ndt = 0.223372
diagonal:  Solving for rho, Initial residual = 0, Final residual = 0, No Iterations 0
diagonal:  Solving for theta, Initial residual = 0, Final residual = 0, No Iterations 0
DICPCG:  Solving for Exner, Initial residual = 8.978e-05, Final residual = 7.18305e-09, No Iterations 40
diagonal:  Solving for rho, Initial residual = 0, Final residual = 0, No Iterations 0
diagonal:  Solving for theta, Initial residual = 0, Final residual = 0, No Iterations 0
DICPCG:  Solving for Exner, Initial residual = 2.62566e-06, Final residual = 9.37505e-11, No Iterations 55
diagonal:  Solving for rho, Initial residual = 0, Final residual = 0, No Iterations 0
diagonal:  Solving for theta, Initial residual = 0, Final residual = 0, No Iterations 0
time step continuity errors : sum local = 4.1085e-10, global = 2.28552e-12, cumulative = -3.55171e-11
Maximum rho difference fraction = 1.57871e-05
Heat error = 6.57876e-07, entropy error = 6.50729e-07
ExecutionTime = 130.94 s  ClockTime = 131 s

Time = 1240

Courant Number mean: 0.401569 max: 0.556124 max Ndt = 0.223307
diagonal:  Solving for rho, Initial residual = 0, Final residual = 0, No Iterations 0
diagonal:  Solving for theta, Initial residual = 0, Final residual = 0, No Iterations 0
DICPCG:  Solving for Exner, Initial residual = 8.8654e-05, Final residual = 8.77342e-09, No Iterations 39
diagonal:  Solving for rho, Initial residual = 0, Final residual = 0, No Iterations 0
diagonal:  Solving for theta, Initial residual = 0, Final residual = 0, No Iterations 0
DICPCG:  Solving for Exner, Initial residual = 2.84821e-06, Final residual = 9.64373e-11, No Iterations 56
diagonal:  Solving for rho, Initial residual = 0, Final residual = 0, No Iterations 0
diagonal:  Solving for theta, Initial residual = 0, Final residual = 0, No Iterations 0
time step continuity errors : sum local = 3.98725e-10, global = 2.6841e-12, cumulative = -3.2833e-11
Maximum rho difference fraction = 1.9126e-05
Heat error = 6.60291e-07, entropy error = 6.31712e-07
ExecutionTime = 132.95 s  ClockTime = 133 s

Time = 1260

Courant Number mean: 0.401572 max: 0.556511 max Ndt = 0.22302
diagonal:  Solving for rho, Initial residual = 0, Final residual = 0, No Iterations 0
diagonal:  Solving for theta, Initial residual = 0, Final residual = 0, No Iterations 0
DICPCG:  Solving for Exner, Initial residual = 8.75633e-05, Final residual = 7.26967e-09, No Iterations 39
diagonal:  Solving for rho, Initial residual = 0, Final residual = 0, No Iterations 0
diagonal:  Solving for theta, Initial residual = 0, Final residual = 0, No Iterations 0
DICPCG:  Solving for Exner, Initial residual = 3.12158e-06, Final residual = 8.90307e-11, No Iterations 57
diagonal:  Solving for rho, Initial residual = 0, Final residual = 0, No Iterations 0
diagonal:  Solving for theta, Initial residual = 0, Final residual = 0, No Iterations 0
time step continuity errors : sum local = 4.05875e-10, global = 2.26309e-12, cumulative = -3.05699e-11
Maximum rho difference fraction = 2.32217e-05
Heat error = 6.62551e-07, entropy error = 6.08842e-07
ExecutionTime = 135 s  ClockTime = 135 s

Time = 1280

Courant Number mean: 0.401571 max: 0.556928 max Ndt = 0.222596
diagonal:  Solving for rho, Initial residual = 0, Final residual = 0, No Iterations 0
diagonal:  Solving for theta, Initial residual = 0, Final residual = 0, No Iterations 0
DICPCG:  Solving for Exner, Initial residual = 8.73005e-05, Final residual = 7.61326e-09, No Iterations 39
diagonal:  Solving for rho, Initial residual = 0, Final residual = 0, No Iterations 0
diagonal:  Solving for theta, Initial residual = 0, Final residual = 0, No Iterations 0
DICPCG:  Solving for Exner, Initial residual = 3.07787e-06, Final residual = 9.21707e-11, No Iterations 57
diagonal:  Solving for rho, Initial residual = 0, Final residual = 0, No Iterations 0
diagonal:  Solving for theta, Initial residual = 0, Final residual = 0, No Iterations 0
time step continuity errors : sum local = 4.00507e-10, global = 1.53337e-12, cumulative = -2.90365e-11
Maximum rho difference fraction = 2.91426e-05
Heat error = 6.64684e-07, entropy error = 5.92177e-07
ExecutionTime = 137.02 s  ClockTime = 137 s

Time = 1300

Courant Number mean: 0.401573 max: 0.55754 max Ndt = 0.222385
diagonal:  Solving for rho, Initial residual = 0, Final residual = 0, No Iterations 0
diagonal:  Solving for theta, Initial residual = 0, Final residual = 0, No Iterations 0
DICPCG:  Solving for Exner, Initial residual = 8.71802e-05, Final residual = 7.80685e-09, No Iterations 39
diagonal:  Solving for rho, Initial residual = 0, Final residual = 0, No Iterations 0
diagonal:  Solving for theta, Initial residual = 0, Final residual = 0, No Iterations 0
DICPCG:  Solving for Exner, Initial residual = 3.0012e-06, Final residual = 8.44891e-11, No Iterations 57
diagonal:  Solving for rho, Initial residual = 0, Final residual = 0, No Iterations 0
diagonal:  Solving for theta, Initial residual = 0, Final residual = 0, No Iterations 0
time step continuity errors : sum local = 4.08262e-10, global = 2.83498e-13, cumulative = -2.8753e-11
Maximum rho difference fraction = 3.06107e-05
Heat error = 6.66563e-07, entropy error = 5.87313e-07
ExecutionTime = 139.05 s  ClockTime = 139 s

Time = 1320

Courant Number mean: 0.401579 max: 0.558062 max Ndt = 0.222013
diagonal:  Solving for rho, Initial residual = 0, Final residual = 0, No Iterations 0
diagonal:  Solving for theta, Initial residual = 0, Final residual = 0, No Iterations 0
DICPCG:  Solving for Exner, Initial residual = 8.69702e-05, Final residual = 8.55668e-09, No Iterations 39
diagonal:  Solving for rho, Initial residual = 0, Final residual = 0, No Iterations 0
diagonal:  Solving for theta, Initial residual = 0, Final residual = 0, No Iterations 0
DICPCG:  Solving for Exner, Initial residual = 2.75191e-06, Final residual = 9.19625e-11, No Iterations 55
diagonal:  Solving for rho, Initial residual = 0, Final residual = 0, No Iterations 0
diagonal:  Solving for theta, Initial residual = 0, Final residual = 0, No Iterations 0
time step continuity errors : sum local = 4.08162e-10, global = -1.17327e-12, cumulative = -2.99263e-11
Maximum rho difference fraction = 2.36859e-05
Heat error = 6.67815e-07, entropy error = 5.93971e-07
ExecutionTime = 141.06 s  ClockTime = 141 s

Time = 1340

Courant Number mean: 0.401587 max: 0.558638 max Ndt = 0.221539
diagonal:  Solving for rho, Initial residual = 0, Final residual = 0, No Iterations 0
diagonal:  Solving for theta, Initial residual = 0, Final residual = 0, No Iterations 0
DICPCG:  Solving for Exner, Initial residual = 8.62014e-05, Final residual = 8.46201e-09, No Iterations 39
diagonal:  Solving for rho, Initial residual = 0, Final residual = 0, No Iterations 0
diagonal:  Solving for theta, Initial residual = 0, Final residual = 0, No Iterations 0
DICPCG:  Solving for Exner, Initial residual = 2.72976e-06, Final residual = 9.06008e-11, No Iterations 55
diagonal:  Solving for rho, Initial residual = 0, Final residual = 0, No Iterations 0
diagonal:  Solving for theta, Initial residual = 0, Final residual = 0, No Iterations 0
time step continuity errors : sum local = 4.05194e-10, global = -2.62447e-12, cumulative = -3.25507e-11
Maximum rho difference fraction = 1.88452e-05
Heat error = 6.67888e-07, entropy error = 6.07155e-07
ExecutionTime = 143.09 s  ClockTime = 143 s

Time = 1360

Courant Number mean: 0.401589 max: 0.559022 max Ndt = 0.221241
diagonal:  Solving for rho, Initial residual = 0, Final residual = 0, No Iterations 0
diagonal:  Solving for theta, Initial residual = 0, Final residual = 0, No Iterations 0
DICPCG:  Solving for Exner, Initial residual = 8.53229e-05, Final residual = 8.40973e-09, No Iterations 39
diagonal:  Solving for rho, Initial residual = 0, Final residual = 0, No Iterations 0
diagonal:  Solving for theta, Initial residual = 0, Final residual = 0, No Iterations 0
DICPCG:  Solving for Exner, Initial residual = 2.91421e-06, Final residual = 8.8561e-11, No Iterations 56
diagonal:  Solving for rho, Initial residual = 0, Final residual = 0, No Iterations 0
diagonal:  Solving for theta, Initial residual = 0, Final residual = 0, No Iterations 0
time step continuity errors : sum local = 4.03713e-10, global = -3.42606e-12, cumulative = -3.59768e-11
Maximum rho difference fraction = 2.02297e-05
Heat error = 6.66073e-07, entropy error = 6.19712e-07
ExecutionTime = 145.11 s  ClockTime = 145 s

Time = 1380

Courant Number mean: 0.401588 max: 0.559408 max Ndt = 0.22084
diagonal:  Solving for rho, Initial residual = 0, Final residual = 0, No Iterations 0
diagonal:  Solving for theta, Initial residual = 0, Final residual = 0, No Iterations 0
DICPCG:  Solving for Exner, Initial residual = 8.4387e-05, Final residual = 7.45444e-09, No Iterations 39
diagonal:  Solving for rho, Initial residual = 0, Final residual = 0, No Iterations 0
diagonal:  Solving for theta, Initial residual = 0, Final residual = 0, No Iterations 0
DICPCG:  Solving for Exner, Initial residual = 3.05428e-06, Final residual = 8.97912e-11, No Iterations 56
diagonal:  Solving for rho, Initial residual = 0, Final residual = 0, No Iterations 0
diagonal:  Solving for theta, Initial residual = 0, Final residual = 0, No Iterations 0
time step continuity errors : sum local = 3.97177e-10, global = -4.14639e-12, cumulative = -4.01232e-11
Maximum rho difference fraction = 2.50738e-05
Heat error = 6.61416e-07, entropy error = 6.24924e-07
ExecutionTime = 147.13 s  ClockTime = 147 s

Time = 1400

Courant Number mean: 0.401591 max: 0.559629 max Ndt = 0.220491
diagonal:  Solving for rho, Initial residual = 0, Final residual = 0, No Iterations 0
diagonal:  Solving for theta, Initial residual = 0, Final residual = 0, No Iterations 0
DICPCG:  Solving for Exner, Initial residual = 8.41587e-05, Final residual = 7.47872e-09, No Iterations 39
diagonal:  Solving for rho, Initial residual = 0, Final residual = 0, No Iterations 0
diagonal:  Solving for theta, Initial residual = 0, Final residual = 0, No Iterations 0
DICPCG:  Solving for Exner, Initial residual = 3.05904e-06, Final residual = 9.73782e-11, No Iterations 56
diagonal:  Solving for rho, Initial residual = 0, Final residual = 0, No Iterations 0
diagonal:  Solving for theta, Initial residual = 0, Final residual = 0, No Iterations 0
time step continuity errors : sum local = 3.99611e-10, global = -4.70699e-12, cumulative = -4.48302e-11
Maximum rho difference fraction = 2.60298e-05
Heat error = 6.52595e-07, entropy error = 6.18283e-07
ExecutionTime = 149.15 s  ClockTime = 150 s

Time = 1420

Courant Number mean: 0.401599 max: 0.559926 max Ndt = 0.220159
diagonal:  Solving for rho, Initial residual = 0, Final residual = 0, No Iterations 0
diagonal:  Solving for theta, Initial residual = 0, Final residual = 0, No Iterations 0
DICPCG:  Solving for Exner, Initial residual = 8.40163e-05, Final residual = 7.5231e-09, No Iterations 39
diagonal:  Solving for rho, Initial residual = 0, Final residual = 0, No Iterations 0
diagonal:  Solving for theta, Initial residual = 0, Final residual = 0, No Iterations 0
DICPCG:  Solving for Exner, Initial residual = 2.87723e-06, Final residual = 8.40367e-11, No Iterations 56
diagonal:  Solving for rho, Initial residual = 0, Final residual = 0, No Iterations 0
diagonal:  Solving for theta, Initial residual = 0, Final residual = 0, No Iterations 0
time step continuity errors : sum local = 3.96484e-10, global = -5.1063e-12, cumulative = -4.99365e-11
Maximum rho difference fraction = 2.32598e-05
Heat error = 6.37907e-07, entropy error = 5.98122e-07
ExecutionTime = 151.18 s  ClockTime = 152 s

Time = 1440

Courant Number mean: 0.401612 max: 0.560163 max Ndt = 0.219855
diagonal:  Solving for rho, Initial residual = 0, Final residual = 0, No Iterations 0
diagonal:  Solving for theta, Initial residual = 0, Final residual = 0, No Iterations 0
DICPCG:  Solving for Exner, Initial residual = 8.35464e-05, Final residual = 7.80796e-09, No Iterations 39
diagonal:  Solving for rho, Initial residual = 0, Final residual = 0, No Iterations 0
diagonal:  Solving for theta, Initial residual = 0, Final residual = 0, No Iterations 0
DICPCG:  Solving for Exner, Initial residual = 2.76973e-06, Final residual = 9.18514e-11, No Iterations 55
diagonal:  Solving for rho, Initial residual = 0, Final residual = 0, No Iterations 0
diagonal:  Solving for theta, Initial residual = 0, Final residual = 0, No Iterations 0
time step continuity errors : sum local = 3.95662e-10, global = -5.41887e-12, cumulative = -5.53553e-11
Maximum rho difference fraction = 1.57084e-05
Heat error = 6.15437e-07, entropy error = 5.65218e-07
ExecutionTime = 153.21 s  ClockTime = 154 s

Time = 1460

Courant Number mean: 0.401625 max: 0.560559 max Ndt = 0.219585
diagonal:  Solving for rho, Initial residual = 0, Final residual = 0, No Iterations 0
diagonal:  Solving for theta, Initial residual = 0, Final residual = 0, No Iterations 0
DICPCG:  Solving for Exner, Initial residual = 8.25389e-05, Final residual = 7.21572e-09, No Iterations 39
diagonal:  Solving for rho, Initial residual = 0, Final residual = 0, No Iterations 0
diagonal:  Solving for theta, Initial residual = 0, Final residual = 0, No Iterations 0
DICPCG:  Solving for Exner, Initial residual = 2.82612e-06, Final residual = 9.49856e-11, No Iterations 56
diagonal:  Solving for rho, Initial residual = 0, Final residual = 0, No Iterations 0
diagonal:  Solving for theta, Initial residual = 0, Final residual = 0, No Iterations 0
time step continuity errors : sum local = 4.04264e-10, global = -5.88234e-12, cumulative = -6.12377e-11
Maximum rho difference fraction = 2.06186e-05
Heat error = 5.83344e-07, entropy error = 5.21719e-07
ExecutionTime = 155.24 s  ClockTime = 156 s

Time = 1480

Courant Number mean: 0.401627 max: 0.560944 max Ndt = 0.219321
diagonal:  Solving for rho, Initial residual = 0, Final residual = 0, No Iterations 0
diagonal:  Solving for theta, Initial residual = 0, Final residual = 0, No Iterations 0
DICPCG:  Solving for Exner, Initial residual = 8.16854e-05, Final residual = 7.08808e-09, No Iterations 39
diagonal:  Solving for rho, Initial residual = 0, Final residual = 0, No Iterations 0
diagonal:  Solving for theta, Initial residual = 0, Final residual = 0, No Iterations 0
DICPCG:  Solving for Exner, Initial residual = 2.91752e-06, Final residual = 8.52435e-11, No Iterations 56
diagonal:  Solving for rho, Initial residual = 0, Final residual = 0, No Iterations 0
diagonal:  Solving for theta, Initial residual = 0, Final residual = 0, No Iterations 0
time step continuity errors : sum local = 3.96476e-10, global = -6.25353e-12, cumulative = -6.74912e-11
Maximum rho difference fraction = 1.96032e-05
Heat error = 5.40183e-07, entropy error = 4.69914e-07
ExecutionTime = 157.31 s  ClockTime = 158 s

Time = 1500

Courant Number mean: 0.401617 max: 0.561474 max Ndt = 0.219106
diagonal:  Solving for rho, Initial residual = 0, Final residual = 0, No Iterations 0
[...]
time step continuity errors : sum local = 1.69608e-09, global = 9.15493e-12, cumulative = 9.5078e-10
Maximum rho difference fraction = 1.79619e-06
Heat error = -3.32624e-05, entropy error = -3.05359e-05
ExecutionTime = 1695.58 s  ClockTime = 1696 s

Time = 16600

Courant Number mean: 0.402707 max: 0.585827 max Ndt = 0.228394
diagonal:  Solving for rho, Initial residual = 0, Final residual = 0, No Iterations 0
diagonal:  Solving for theta, Initial residual = 0, Final residual = 0, No Iterations 0
DICPCG:  Solving for Exner, Initial residual = 3.95036e-06, Final residual = 3.41185e-10, No Iterations 42
diagonal:  Solving for rho, Initial residual = 0, Final residual = 0, No Iterations 0
diagonal:  Solving for theta, Initial residual = 0, Final residual = 0, No Iterations 0
DICPCG:  Solving for Exner, Initial residual = 1.61413e-07, Final residual = 9.61753e-11, No Iterations 38
diagonal:  Solving for rho, Initial residual = 0, Final residual = 0, No Iterations 0
diagonal:  Solving for theta, Initial residual = 0, Final residual = 0, No Iterations 0
time step continuity errors : sum local = 1.7016e-09, global = 7.85625e-12, cumulative = 9.58636e-10
Maximum rho difference fraction = 1.26171e-06
Heat error = -3.3369e-05, entropy error = -3.06248e-05
ExecutionTime = 1697.62 s  ClockTime = 1698 s

Time = 16620

Courant Number mean: 0.402719 max: 0.585855 max Ndt = 0.228414
diagonal:  Solving for rho, Initial residual = 0, Final residual = 0, No Iterations 0
diagonal:  Solving for theta, Initial residual = 0, Final residual = 0, No Iterations 0
DICPCG:  Solving for Exner, Initial residual = 3.97591e-06, Final residual = 3.00488e-10, No Iterations 42
diagonal:  Solving for rho, Initial residual = 0, Final residual = 0, No Iterations 0
diagonal:  Solving for theta, Initial residual = 0, Final residual = 0, No Iterations 0
DICPCG:  Solving for Exner, Initial residual = 1.30203e-07, Final residual = 8.89878e-11, No Iterations 38
diagonal:  Solving for rho, Initial residual = 0, Final residual = 0, No Iterations 0
diagonal:  Solving for theta, Initial residual = 0, Final residual = 0, No Iterations 0
time step continuity errors : sum local = 1.70038e-09, global = 5.68774e-12, cumulative = 9.64324e-10
Maximum rho difference fraction = 1.16822e-06
Heat error = -3.34752e-05, entropy error = -3.07135e-05
ExecutionTime = 1699.61 s  ClockTime = 1700 s

Time = 16640

Courant Number mean: 0.402731 max: 0.585865 max Ndt = 0.228435
diagonal:  Solving for rho, Initial residual = 0, Final residual = 0, No Iterations 0
diagonal:  Solving for theta, Initial residual = 0, Final residual = 0, No Iterations 0
DICPCG:  Solving for Exner, Initial residual = 3.9624e-06, Final residual = 2.56194e-10, No Iterations 42
diagonal:  Solving for rho, Initial residual = 0, Final residual = 0, No Iterations 0
diagonal:  Solving for theta, Initial residual = 0, Final residual = 0, No Iterations 0
DICPCG:  Solving for Exner, Initial residual = 1.17132e-07, Final residual = 8.34413e-11, No Iterations 38
diagonal:  Solving for rho, Initial residual = 0, Final residual = 0, No Iterations 0
diagonal:  Solving for theta, Initial residual = 0, Final residual = 0, No Iterations 0
time step continuity errors : sum local = 1.70371e-09, global = 3.08843e-12, cumulative = 9.67413e-10
Maximum rho difference fraction = 1.33434e-06
Heat error = -3.35815e-05, entropy error = -3.08024e-05
ExecutionTime = 1701.65 s  ClockTime = 1702 s

Time = 16660

Courant Number mean: 0.402743 max: 0.585857 max Ndt = 0.228455
diagonal:  Solving for rho, Initial residual = 0, Final residual = 0, No Iterations 0
diagonal:  Solving for theta, Initial residual = 0, Final residual = 0, No Iterations 0
DICPCG:  Solving for Exner, Initial residual = 3.90368e-06, Final residual = 3.84063e-10, No Iterations 41
diagonal:  Solving for rho, Initial residual = 0, Final residual = 0, No Iterations 0
diagonal:  Solving for theta, Initial residual = 0, Final residual = 0, No Iterations 0
DICPCG:  Solving for Exner, Initial residual = 1.24602e-07, Final residual = 8.98303e-11, No Iterations 38
diagonal:  Solving for rho, Initial residual = 0, Final residual = 0, No Iterations 0
diagonal:  Solving for theta, Initial residual = 0, Final residual = 0, No Iterations 0
time step continuity errors : sum local = 1.70071e-09, global = 1.79051e-12, cumulative = 9.69203e-10
Maximum rho difference fraction = 1.45409e-06
Heat error = -3.36882e-05, entropy error = -3.08918e-05
ExecutionTime = 1703.72 s  ClockTime = 1704 s

Time = 16680

Courant Number mean: 0.402756 max: 0.585835 max Ndt = 0.228475
diagonal:  Solving for rho, Initial residual = 0, Final residual = 0, No Iterations 0
diagonal:  Solving for theta, Initial residual = 0, Final residual = 0, No Iterations 0
DICPCG:  Solving for Exner, Initial residual = 3.81443e-06, Final residual = 2.61352e-10, No Iterations 42
diagonal:  Solving for rho, Initial residual = 0, Final residual = 0, No Iterations 0
diagonal:  Solving for theta, Initial residual = 0, Final residual = 0, No Iterations 0
DICPCG:  Solving for Exner, Initial residual = 1.40621e-07, Final residual = 9.80221e-11, No Iterations 38
diagonal:  Solving for rho, Initial residual = 0, Final residual = 0, No Iterations 0
diagonal:  Solving for theta, Initial residual = 0, Final residual = 0, No Iterations 0
time step continuity errors : sum local = 1.70416e-09, global = 6.69027e-13, cumulative = 9.69872e-10
Maximum rho difference fraction = 1.41922e-06
Heat error = -3.37957e-05, entropy error = -3.09819e-05
ExecutionTime = 1705.75 s  ClockTime = 1706 s

Time = 16700

Courant Number mean: 0.402768 max: 0.585804 max Ndt = 0.228495
diagonal:  Solving for rho, Initial residual = 0, Final residual = 0, No Iterations 0
diagonal:  Solving for theta, Initial residual = 0, Final residual = 0, No Iterations 0
DICPCG:  Solving for Exner, Initial residual = 3.69666e-06, Final residual = 2.6687e-10, No Iterations 42
diagonal:  Solving for rho, Initial residual = 0, Final residual = 0, No Iterations 0
diagonal:  Solving for theta, Initial residual = 0, Final residual = 0, No Iterations 0
DICPCG:  Solving for Exner, Initial residual = 1.62392e-07, Final residual = 7.23229e-11, No Iterations 39
diagonal:  Solving for rho, Initial residual = 0, Final residual = 0, No Iterations 0
diagonal:  Solving for theta, Initial residual = 0, Final residual = 0, No Iterations 0
time step continuity errors : sum local = 1.6984e-09, global = -1.06466e-13, cumulative = 9.69766e-10
Maximum rho difference fraction = 1.615e-06
Heat error = -3.39041e-05, entropy error = -3.10726e-05
ExecutionTime = 1707.75 s  ClockTime = 1708 s

Time = 16720

Courant Number mean: 0.402781 max: 0.585767 max Ndt = 0.228515
diagonal:  Solving for rho, Initial residual = 0, Final residual = 0, No Iterations 0
diagonal:  Solving for theta, Initial residual = 0, Final residual = 0, No Iterations 0
DICPCG:  Solving for Exner, Initial residual = 3.56271e-06, Final residual = 2.4452e-10, No Iterations 42
diagonal:  Solving for rho, Initial residual = 0, Final residual = 0, No Iterations 0
diagonal:  Solving for theta, Initial residual = 0, Final residual = 0, No Iterations 0
DICPCG:  Solving for Exner, Initial residual = 1.89424e-07, Final residual = 6.89057e-11, No Iterations 39
diagonal:  Solving for rho, Initial residual = 0, Final residual = 0, No Iterations 0
diagonal:  Solving for theta, Initial residual = 0, Final residual = 0, No Iterations 0
time step continuity errors : sum local = 1.70031e-09, global = -6.83843e-13, cumulative = 9.69082e-10
Maximum rho difference fraction = 1.7619e-06
Heat error = -3.40135e-05, entropy error = -3.1164e-05
ExecutionTime = 1709.73 s  ClockTime = 1710 s

Time = 16740

Courant Number mean: 0.402792 max: 0.58573 max Ndt = 0.228535
diagonal:  Solving for rho, Initial residual = 0, Final residual = 0, No Iterations 0
diagonal:  Solving for theta, Initial residual = 0, Final residual = 0, No Iterations 0
DICPCG:  Solving for Exner, Initial residual = 3.44707e-06, Final residual = 3.25379e-10, No Iterations 41
diagonal:  Solving for rho, Initial residual = 0, Final residual = 0, No Iterations 0
diagonal:  Solving for theta, Initial residual = 0, Final residual = 0, No Iterations 0
DICPCG:  Solving for Exner, Initial residual = 2.10924e-07, Final residual = 6.88149e-11, No Iterations 39
diagonal:  Solving for rho, Initial residual = 0, Final residual = 0, No Iterations 0
diagonal:  Solving for theta, Initial residual = 0, Final residual = 0, No Iterations 0
time step continuity errors : sum local = 1.69446e-09, global = -1.55365e-12, cumulative = 9.67528e-10
Maximum rho difference fraction = 1.82471e-06
Heat error = -3.41235e-05, entropy error = -3.12557e-05
ExecutionTime = 1711.73 s  ClockTime = 1712 s

Time = 16760

Courant Number mean: 0.402804 max: 0.585695 max Ndt = 0.228554
diagonal:  Solving for rho, Initial residual = 0, Final residual = 0, No Iterations 0
diagonal:  Solving for theta, Initial residual = 0, Final residual = 0, No Iterations 0
DICPCG:  Solving for Exner, Initial residual = 3.3942e-06, Final residual = 3.14081e-10, No Iterations 41
diagonal:  Solving for rho, Initial residual = 0, Final residual = 0, No Iterations 0
diagonal:  Solving for theta, Initial residual = 0, Final residual = 0, No Iterations 0
DICPCG:  Solving for Exner, Initial residual = 2.25733e-07, Final residual = 7.78047e-11, No Iterations 39
diagonal:  Solving for rho, Initial residual = 0, Final residual = 0, No Iterations 0
diagonal:  Solving for theta, Initial residual = 0, Final residual = 0, No Iterations 0
time step continuity errors : sum local = 1.69685e-09, global = -2.7035e-12, cumulative = 9.64825e-10
Maximum rho difference fraction = 1.82946e-06
Heat error = -3.42339e-05, entropy error = -3.13476e-05
ExecutionTime = 1713.72 s  ClockTime = 1714 s

Time = 16780

Courant Number mean: 0.402815 max: 0.585665 max Ndt = 0.228574
diagonal:  Solving for rho, Initial residual = 0, Final residual = 0, No Iterations 0
diagonal:  Solving for theta, Initial residual = 0, Final residual = 0, No Iterations 0
DICPCG:  Solving for Exner, Initial residual = 3.43876e-06, Final residual = 3.29803e-10, No Iterations 41
diagonal:  Solving for rho, Initial residual = 0, Final residual = 0, No Iterations 0
diagonal:  Solving for theta, Initial residual = 0, Final residual = 0, No Iterations 0
DICPCG:  Solving for Exner, Initial residual = 2.2667e-07, Final residual = 8.70746e-11, No Iterations 39
diagonal:  Solving for rho, Initial residual = 0, Final residual = 0, No Iterations 0
diagonal:  Solving for theta, Initial residual = 0, Final residual = 0, No Iterations 0
time step continuity errors : sum local = 1.69173e-09, global = -3.93511e-12, cumulative = 9.6089e-10
Maximum rho difference fraction = 1.77726e-06
Heat error = -3.43443e-05, entropy error = -3.14394e-05
ExecutionTime = 1715.76 s  ClockTime = 1716 s

Time = 16800

Courant Number mean: 0.402826 max: 0.585641 max Ndt = 0.228593
diagonal:  Solving for rho, Initial residual = 0, Final residual = 0, No Iterations 0
diagonal:  Solving for theta, Initial residual = 0, Final residual = 0, No Iterations 0
DICPCG:  Solving for Exner, Initial residual = 3.55734e-06, Final residual = 3.42421e-10, No Iterations 41
diagonal:  Solving for rho, Initial residual = 0, Final residual = 0, No Iterations 0
diagonal:  Solving for theta, Initial residual = 0, Final residual = 0, No Iterations 0
DICPCG:  Solving for Exner, Initial residual = 2.13536e-07, Final residual = 9.02945e-11, No Iterations 39
diagonal:  Solving for rho, Initial residual = 0, Final residual = 0, No Iterations 0
diagonal:  Solving for theta, Initial residual = 0, Final residual = 0, No Iterations 0
time step continuity errors : sum local = 1.69781e-09, global = -5.21057e-12, cumulative = 9.55679e-10
Maximum rho difference fraction = 1.71266e-06
Heat error = -3.44545e-05, entropy error = -3.15308e-05
ExecutionTime = 1717.75 s  ClockTime = 1718 s

Time = 16820

Courant Number mean: 0.402838 max: 0.585623 max Ndt = 0.228611
diagonal:  Solving for rho, Initial residual = 0, Final residual = 0, No Iterations 0
diagonal:  Solving for theta, Initial residual = 0, Final residual = 0, No Iterations 0
DICPCG:  Solving for Exner, Initial residual = 3.67944e-06, Final residual = 2.52864e-10, No Iterations 42
diagonal:  Solving for rho, Initial residual = 0, Final residual = 0, No Iterations 0
diagonal:  Solving for theta, Initial residual = 0, Final residual = 0, No Iterations 0
DICPCG:  Solving for Exner, Initial residual = 1.86853e-07, Final residual = 8.60261e-11, No Iterations 39
diagonal:  Solving for rho, Initial residual = 0, Final residual = 0, No Iterations 0
diagonal:  Solving for theta, Initial residual = 0, Final residual = 0, No Iterations 0
time step continuity errors : sum local = 1.69639e-09, global = -6.53663e-12, cumulative = 9.49142e-10
Maximum rho difference fraction = 1.61299e-06
Heat error = -3.4564e-05, entropy error = -3.16217e-05
ExecutionTime = 1719.78 s  ClockTime = 1720 s

Time = 16840

Courant Number mean: 0.40285 max: 0.585609 max Ndt = 0.228629
diagonal:  Solving for rho, Initial residual = 0, Final residual = 0, No Iterations 0
diagonal:  Solving for theta, Initial residual = 0, Final residual = 0, No Iterations 0
DICPCG:  Solving for Exner, Initial residual = 3.77093e-06, Final residual = 3.01515e-10, No Iterations 42
diagonal:  Solving for rho, Initial residual = 0, Final residual = 0, No Iterations 0
diagonal:  Solving for theta, Initial residual = 0, Final residual = 0, No Iterations 0
DICPCG:  Solving for Exner, Initial residual = 1.55164e-07, Final residual = 7.41381e-11, No Iterations 39
diagonal:  Solving for rho, Initial residual = 0, Final residual = 0, No Iterations 0
diagonal:  Solving for theta, Initial residual = 0, Final residual = 0, No Iterations 0
time step continuity errors : sum local = 1.70422e-09, global = -7.9143e-12, cumulative = 9.41228e-10
Maximum rho difference fraction = 1.43519e-06
Heat error = -3.46728e-05, entropy error = -3.17121e-05
ExecutionTime = 1721.82 s  ClockTime = 1722 s

Time = 16860

Courant Number mean: 0.402862 max: 0.5856 max Ndt = 0.228648
diagonal:  Solving for rho, Initial residual = 0, Final residual = 0, No Iterations 0
diagonal:  Solving for theta, Initial residual = 0, Final residual = 0, No Iterations 0
DICPCG:  Solving for Exner, Initial residual = 3.81354e-06, Final residual = 3.27641e-10, No Iterations 42
diagonal:  Solving for rho, Initial residual = 0, Final residual = 0, No Iterations 0
diagonal:  Solving for theta, Initial residual = 0, Final residual = 0, No Iterations 0
DICPCG:  Solving for Exner, Initial residual = 1.28482e-07, Final residual = 9.00094e-11, No Iterations 38
diagonal:  Solving for rho, Initial residual = 0, Final residual = 0, No Iterations 0
diagonal:  Solving for theta, Initial residual = 0, Final residual = 0, No Iterations 0
time step continuity errors : sum local = 1.69841e-09, global = -9.44104e-12, cumulative = 9.31787e-10
Maximum rho difference fraction = 1.13981e-06
Heat error = -3.47809e-05, entropy error = -3.18022e-05
ExecutionTime = 1723.87 s  ClockTime = 1724 s

Time = 16880

Courant Number mean: 0.402875 max: 0.585594 max Ndt = 0.228666
diagonal:  Solving for rho, Initial residual = 0, Final residual = 0, No Iterations 0
diagonal:  Solving for theta, Initial residual = 0, Final residual = 0, No Iterations 0
DICPCG:  Solving for Exner, Initial residual = 3.81018e-06, Final residual = 3.18661e-10, No Iterations 42
diagonal:  Solving for rho, Initial residual = 0, Final residual = 0, No Iterations 0
diagonal:  Solving for theta, Initial residual = 0, Final residual = 0, No Iterations 0
DICPCG:  Solving for Exner, Initial residual = 1.18398e-07, Final residual = 8.19872e-11, No Iterations 38
diagonal:  Solving for rho, Initial residual = 0, Final residual = 0, No Iterations 0
diagonal:  Solving for theta, Initial residual = 0, Final residual = 0, No Iterations 0
time step continuity errors : sum local = 1.69931e-09, global = -1.07836e-11, cumulative = 9.21003e-10
Maximum rho difference fraction = 9.10616e-07
Heat error = -3.48886e-05, entropy error = -3.18925e-05
ExecutionTime = 1725.95 s  ClockTime = 1727 s

Time = 16900

Courant Number mean: 0.402888 max: 0.585593 max Ndt = 0.228684
diagonal:  Solving for rho, Initial residual = 0, Final residual = 0, No Iterations 0
diagonal:  Solving for theta, Initial residual = 0, Final residual = 0, No Iterations 0
DICPCG:  Solving for Exner, Initial residual = 3.78016e-06, Final residual = 2.7502e-10, No Iterations 42
diagonal:  Solving for rho, Initial residual = 0, Final residual = 0, No Iterations 0
diagonal:  Solving for theta, Initial residual = 0, Final residual = 0, No Iterations 0
DICPCG:  Solving for Exner, Initial residual = 1.34116e-07, Final residual = 8.5092e-11, No Iterations 38
diagonal:  Solving for rho, Initial residual = 0, Final residual = 0, No Iterations 0
diagonal:  Solving for theta, Initial residual = 0, Final residual = 0, No Iterations 0
time step continuity errors : sum local = 1.69473e-09, global = -1.28085e-11, cumulative = 9.08195e-10
Maximum rho difference fraction = 1.46362e-06
Heat error = -3.49966e-05, entropy error = -3.19834e-05
ExecutionTime = 1727.95 s  ClockTime = 1729 s

Time = 16920

Courant Number mean: 0.402902 max: 0.585595 max Ndt = 0.228703
diagonal:  Solving for rho, Initial residual = 0, Final residual = 0, No Iterations 0
diagonal:  Solving for theta, Initial residual = 0, Final residual = 0, No Iterations 0
DICPCG:  Solving for Exner, Initial residual = 3.74272e-06, Final residual = 3.56382e-10, No Iterations 41
diagonal:  Solving for rho, Initial residual = 0, Final residual = 0, No Iterations 0
diagonal:  Solving for theta, Initial residual = 0, Final residual = 0, No Iterations 0
DICPCG:  Solving for Exner, Initial residual = 1.64252e-07, Final residual = 9.43311e-11, No Iterations 38
diagonal:  Solving for rho, Initial residual = 0, Final residual = 0, No Iterations 0
diagonal:  Solving for theta, Initial residual = 0, Final residual = 0, No Iterations 0
time step continuity errors : sum local = 1.69953e-09, global = -1.61794e-11, cumulative = 8.92016e-10
Maximum rho difference fraction = 1.88359e-06
Heat error = -3.51054e-05, entropy error = -3.20757e-05
ExecutionTime = 1729.93 s  ClockTime = 1731 s

Time = 16940

Courant Number mean: 0.402915 max: 0.585604 max Ndt = 0.228722
diagonal:  Solving for rho, Initial residual = 0, Final residual = 0, No Iterations 0
diagonal:  Solving for theta, Initial residual = 0, Final residual = 0, No Iterations 0
DICPCG:  Solving for Exner, Initial residual = 3.69051e-06, Final residual = 3.37711e-10, No Iterations 41
diagonal:  Solving for rho, Initial residual = 0, Final residual = 0, No Iterations 0
diagonal:  Solving for theta, Initial residual = 0, Final residual = 0, No Iterations 0
DICPCG:  Solving for Exner, Initial residual = 1.90346e-07, Final residual = 8.47209e-11, No Iterations 39
diagonal:  Solving for rho, Initial residual = 0, Final residual = 0, No Iterations 0
diagonal:  Solving for theta, Initial residual = 0, Final residual = 0, No Iterations 0
time step continuity errors : sum local = 1.6975e-09, global = -1.97383e-11, cumulative = 8.72277e-10
Maximum rho difference fraction = 2.09603e-06
Heat error = -3.5216e-05, entropy error = -3.21702e-05
ExecutionTime = 1731.96 s  ClockTime = 1733 s

Time = 16960

Courant Number mean: 0.402928 max: 0.58562 max Ndt = 0.228741
diagonal:  Solving for rho, Initial residual = 0, Final residual = 0, No Iterations 0
diagonal:  Solving for theta, Initial residual = 0, Final residual = 0, No Iterations 0
DICPCG:  Solving for Exner, Initial residual = 3.63628e-06, Final residual = 2.92622e-10, No Iterations 42
diagonal:  Solving for rho, Initial residual = 0, Final residual = 0, No Iterations 0
diagonal:  Solving for theta, Initial residual = 0, Final residual = 0, No Iterations 0
